216
C108Si107Ta optimized with Band in AMS.
Si        3.14933571608008       0.02388806774599       7.14333884244511
Si        3.14517513452358       0.01399767460352      12.31827409222550
C         3.15308222166980       0.01696770534659       5.20899935132423
C         3.14513487475914       0.01366432789361      10.38070155654195
Si        3.14630858564288      -1.81261417294298       9.72796185882714
Si        3.14573781776888       1.85743419418522      14.91317794753352
C         3.14609125079114      -1.80409894357817       7.77973721841264
C         3.14512431671838       1.83954908833375      12.96656395120089
Si       -3.14589283650184      -0.01855846029594     -13.60661593417955
Si       -3.14534250952766      -0.02460036453054      -8.42862937627267
C        -3.14642863649880      -0.02798471431629     -15.54393512228219
C        -3.14542839990989      -0.02550022534510     -10.36594046114535
Si       -3.14527096851522      -1.85161425003089     -11.01872241243594
Si       -3.14553247887575       1.81996892205774      -5.83319789195199
C        -3.14537498269421      -1.84395522746194     -12.96566339195530
C        -3.14562840171832       1.80133390946447      -7.78075747107787
Si       -3.14856562734342       0.00374187874202      -3.25395236199377
Si       -3.16473899291171      -0.00474144798059       1.94429373537213
C        -3.14724545591990      -0.00684065417569      -5.19018611513137
C        -3.14514757177749      -0.00262431123743       0.00079665042116
Si       -3.14405799184317      -1.82937148683591      -0.65304641096231
Si       -3.14276457210273       1.83877212766971       4.55212160324560
C        -3.14418788439776      -1.82081755373266      -2.60406987708154
C        -3.14327140227997       1.82196758223090       2.59909559471640
Si       -3.14844397446747       0.02415312203603       7.14301772265084
Si       -3.14405034775504       0.01428946639782      12.31805347320008
C        -3.15233566073241       0.01722504139225       5.20861191755386
C        -3.14416239441542       0.01393818784254      10.38054746909249
Si       -3.14511111561080      -1.81236480286846       9.72769668632056
Si       -3.14465325415810       1.85766789683511      14.91290346443019
C        -3.14495266150005      -1.80383183027373       7.77942442164373
C        -3.14425746109322       1.83982190820906      12.96627120032577
Si       -1.57314481023638       2.72785243760493     -13.60079998253848
Si       -1.57296464399257       2.72192279393616      -8.42324212756971
C        -1.57330448210372       2.71860834671874     -15.53759700491947
C        -1.57308895962876       2.72081039847813     -10.36058237789721
Si       -1.57301496205678       0.89463957636774     -11.01323797873231
Si       -1.57226137807336       4.56711643379108      -5.83052790520776
C        -1.57314395871476       0.90226527149585     -12.96045917194830
C        -1.57259787982475       4.54816624328363      -7.77714462105109
Si       -1.57462962692266       2.75425954922229      -3.24873858879223
Si       -1.58748833056545       2.77046145405561       1.94762631206217
C        -1.57287236915268       2.74342845373565      -5.18493657603233
C        -1.57473885378678       2.74493720582712       0.00454430583973
Si       -1.58428178790012       0.92490485287173      -0.67571095396901
Si       -1.57549570893663       4.58588120248478       4.55419274899926
C        -1.58235512795197       0.93108532533348      -2.61971081019764
C        -1.57599367817177       4.57221046502486       2.60228239178899
Si       -1.57648491361101       2.77177736614220       7.14978382302257
Si       -1.57183260738745       2.76030096545256      12.32356109530754
C        -1.58008032872588       2.76727877599835       5.21633269938063
C        -1.57180155530782       2.76018415108571      10.38619370311588
Si       -1.57139222790422       0.93407965451558       9.73252375964045
Si       -1.57227883705598       4.60377554623832      14.91796375667341
C        -1.57202461119500       0.94318825630819       7.78304388293803
C        -1.57228335228057       4.58620468500953      12.97093786454440
Si       -0.00071523863857       5.47402500424804     -13.59539349620466
Si       -0.00070164177376       5.46830787596407      -8.41989511193579
C        -0.00082103532491       5.46440700303689     -15.53238483478235
C        -0.00072924718964       5.46725709298084     -10.35644016991703
Si       -0.00056924485880       3.64091931048715     -11.00796056043458
Si       -0.00073721635754       7.31147800810940      -5.82538922806423
C        -0.00056537071260       3.64853406401790     -12.95485671340852
C        -0.00081869611425       7.29332518065798      -7.77186598390019
Si       -0.00046660725098       5.49701068921038      -3.23554205073506
Si       -0.00023824012459       5.49139494999626       1.95840910141500
C        -0.00061988570927       5.48743763363538      -5.17533167920013
C        -0.00040628134294       5.49003610058554       0.01614950412068
Si       -0.00028135164661       3.66376064374528      -0.64275678493506
Si       -0.00006258263111       7.33456793009125       4.55790886525708
C        -0.00030649220264       3.67060249899297      -2.59381580400851
C        -0.00024596228237       7.31808164500914       2.60683744062968
Si        0.00016960883160       5.51517930590339       7.14501313274771
Si        0.00030077343044       5.50687852991708      12.32862839243169
C         0.00002228204889       5.50714507860456       5.20244933403119
C         0.00022459888022       5.50684096185004      10.39177256546221
Si        0.00036678730859       3.68169155114202       9.73864367588665
Si        0.00044802627889       7.34887498838791      14.92275083693878
C         0.00034692008790       3.69042758646876       7.79053645366020
C         0.00020394973196       7.33267472822424      12.97576925563807
Si       -1.57289118225037      -2.76490581690380     -13.61131817771095
Si       -1.57279160652501      -2.77086331903210      -8.43386568889767
C        -1.57302960401734      -2.77391687742055     -15.54805047870615
C        -1.57275570082957      -2.77189685739252     -10.37121238505048
Si       -1.57269775163055      -4.59816509908229     -11.02356643146928
Si       -1.57280026245385      -0.92650252529972      -5.83850322493759
C        -1.57272890072468      -4.59041864102975     -12.97069418647092
C        -1.57281241418025      -0.94514380798450      -7.78612671144690
Si       -1.57408971132181      -2.74440428834723      -3.25813262720040
Si       -1.58074290820301      -2.76944877589900       1.93865300044104
C        -1.57448311266322      -2.75266681811750      -5.19470025435218
C        -1.57130041693358      -2.75008845882116      -0.00476665104714
Si       -1.57113835611873      -4.57497768430549      -0.66189856354541
Si       -1.59704814949696      -0.92341879338361       4.56707209317976
C        -1.57204203425993      -4.56733751643445      -2.61158695454525
C        -1.66977922685810      -0.99015521206225       2.64587990553649
Si       -1.57166320345312      -2.72913152087496       7.13936325988381
Si       -1.57169839892280      -2.73186055994883      12.31290307718742
C        -1.57231696563982      -2.74291380236923       5.20648521609266
C        -1.57174052570297      -2.73201009381789      10.37541105696975
Si       -1.57031621184549      -4.55929163415458       9.72663669372532
Si       -1.57187273935239      -0.88869694032152      14.90731812211670
C        -1.56913824670039      -4.55128071570979       7.78219557975003
C        -1.57174595307243      -0.90644464410991      12.96053436930700
Si       -0.00045072278170      -0.01866315489660     -13.60604643531110
Si       -0.00042946009380      -0.02455114683036      -8.42835342836147
C        -0.00044283982140      -0.02775414529849     -15.54284247861461
C        -0.00041429659623      -0.02559680277757     -10.36583462814214
Si       -0.00033025465367      -1.85176035551650     -11.01835180284215
Si       -0.00049801072177       1.82012375681750      -5.83314022323355
C        -0.00035959233745      -1.84410072729130     -12.96535312156522
C        -0.00058202515652       1.80115604798536      -7.78075502287698
Si       -0.00026465525544       0.00477614931623      -3.24766107044918
Ta        0.00012257927307       0.01943674098724       1.98417062972798
C        -0.00031764077989      -0.00537058781410      -5.18673388647567
C        -0.00034477530206       0.00166068861711      -0.09800377413013
Si       -0.00004748361434      -1.83906312393978      -0.67637280134055
Si        0.00018405709345       1.87246998107087       4.57416192234846
C        -0.00012848483741      -1.82994794676327      -2.62181754891757
C        -0.00004000286326       1.96244254942828       2.65242271602456
Si        0.00044947403662       0.02272718503394       7.13273403101514
Si        0.00053289940410       0.01422199344547      12.31808139668612
C         0.00043081398295       0.01460157611143       5.17724573421454
C         0.00056832389499       0.01406389579815      10.38055832454667
Si        0.00062368645422      -1.81108523471807       9.72756533423435
Si        0.00055956753181       1.85753119574477      14.91298970115781
C         0.00055738992954      -1.80278010480719       7.77841446388509
C         0.00040489006777       1.83961397175825      12.96618818178496
Si        1.57195443896623       2.72769477659306     -13.60064022992102
Si        1.57183012780768       2.72174659492763      -8.42314080232354
C         1.57197234218387       2.71840510753867     -15.53735054111583
C         1.57192610892489       2.72061575994434     -10.36050088531113
Si        1.57212259687244       0.89450038337151     -11.01311928430632
Si        1.57104456764023       4.56698053463129      -5.83035405012020
C         1.57223409728506       0.90213892731230     -12.96028142673087
C         1.57122147136947       4.54801165452683      -7.77704942626834
Si        1.57392974994574       2.75408109627056      -3.24851564626285
Si        1.58743851890265       2.77042140452027       1.94774859439758
C         1.57195276873029       2.74323967761797      -5.18467719139197
C         1.57423149100167       2.74473437104079       0.00458363104925
Si        1.58374302398779       0.92465853221173      -0.67536051410374
Si        1.57552385876071       4.58580529493330       4.55428712083466
C         1.58183123403434       0.93090656234270      -2.61942160030774
C         1.57562710515366       4.57213455753436       2.60232537591555
Si        1.57710739765598       2.77164505373954       7.14993962767544
Si        1.57265769925279       2.76016667852617      12.32362989010370
C         1.58048896876366       2.76716437251788       5.21651528117790
C         1.57258952310662       2.76001498956969      10.38618110702148
Si        1.57241166489590       0.93393795441046       9.73261767832705
Si        1.57314553988949       4.60361598856680      14.91813573233143
C         1.57295387942214       0.94307541908610       7.78320760690184
C         1.57289193197417       4.58607129919985      12.97104789453856
Si       -0.00023790430081      -5.51143551018018     -13.61657063000174
Si       -0.00019279977960      -5.51753745363595      -8.43889810549357
C        -0.00030102007543      -5.52018104016152     -15.55339885249913
C        -0.00018791938354      -5.51851439371489     -10.37621628648064
Si       -0.00007997681446      -7.34465652629838     -11.02876685555973
Si       -0.00022811275685      -3.67322480411043      -5.84337617906145
C        -0.00006430706759      -7.33686034096642     -12.97574293224583
C        -0.00032626242626      -3.69188180044519      -7.79106527518026
Si       -0.00001790107707      -5.48881219451009      -3.25803236519397
Si        0.00031083807982      -5.49720372651307       1.93391471294203
C        -0.00008276671910      -5.49871884034845      -5.19629819596033
C         0.00013030133152      -5.49681627888445      -0.00840664558336
Si        0.00016366002337      -7.32198539699180      -0.66643356372260
Si        0.00040087307056      -3.65335656111424       4.54188727182544
C         0.00009885721239      -7.31468015111190      -2.61620962338189
C         0.00019010602046      -3.67420433433868       2.58940530030186
Si        0.00065132743488      -5.47112890612328       7.12864036747075
Si        0.00079517018617      -5.47881116399985      12.30992296422632
C         0.00053589545359      -5.48015011931901       5.18763605050652
C         0.00072201011923      -5.47916554802110      10.37487356759203
Si        0.00083792345435      -7.30363335302072       9.72075656382008
Si        0.00078651034357      -3.63479668773928      14.90260362029559
C         0.00082993116161      -7.29413758071293       7.77564221502653
C         0.00066467639561      -3.65272500661213      12.95589850809777
Si        1.57218131359187      -2.76503549944665     -13.61116690222778
Si        1.57216161313464      -2.77100399408439      -8.43371244241172
C         1.57224715646853      -2.77401826828220     -15.54801331538988
C         1.57213455812572      -2.77203308633091     -10.37108448722902
Si        1.57226738072674      -4.59829333641326     -11.02342469977528
Si        1.57206963929817      -0.92664745159090      -5.83840952839362
C         1.57226720384797      -4.59056557956767     -12.97051119810689
C         1.57192920884545      -0.94529741327375      -7.78597469904430
Si        1.57384487145990      -2.74449403439917      -3.25802137937585
Si        1.58107116502228      -2.76944844436490       1.93893543778405
C         1.57409867568535      -2.75278711893220      -5.19465856649110
C         1.57132389353235      -2.75011898413179      -0.00453930676892
Si        1.57134267489761      -4.57505569111542      -0.66170021079337
Si        1.59785344093706      -0.92368111254293       4.56748957337957
C         1.57206574208641      -4.56744383745322      -2.61141113856833
C         1.66996672156561      -0.99030191880649       2.64645894253517
Si        1.57275192501601      -2.72930066471358       7.13955074532384
Si        1.57302149865818      -2.73201628615213      12.31304112063549
C         1.57321777574746      -2.74314887468068       5.20671001567862
C         1.57301822830220      -2.73211510071422      10.37556420951885
Si        1.57177881429466      -4.55942944107128       9.72681927298023
Si        1.57330998529924      -0.88882650488769      14.90742561796286
C         1.57049023252212      -4.55145340530210       7.78235994335875
C         1.57285276681606      -0.90658546516436      12.96071981326799
Si        3.14498432050100      -0.01883033594816     -13.60628142989278
Si        3.14444726630981      -0.02488581804884      -8.42838575622337
C         3.14551024734977      -0.02826491749737     -15.54365735021638
C         3.14450762689337      -0.02580148422488     -10.36574605645451
Si        3.14460511872201      -1.85188993511432     -11.01846960816400
Si        3.14458113993713       1.81967958009609      -5.83294154041253
C         3.14471435580381      -1.84423427299272     -12.96533798664928
C         3.14451393286822       1.80105397309238      -7.78050875240796
Si        3.14802703979022       0.00347142751057      -3.25363560849496
Si        3.16484726343129      -0.00503738719867       1.94470452825491
C         3.14652538670838      -0.00713706088175      -5.18988854577023
C         3.14473484776443      -0.00294167086164       0.00107345180726
Si        3.14398167973162      -1.82963691353893      -0.65275415542618
Si        3.14308274269026       1.83848912156928       4.55242176249760
C         3.14401828406112      -1.82107183302959      -2.60375386414113
C         3.14326277855120       1.82174892177822       2.59942158142675
VEC1       4.71786658166480      -8.23953517618685      -0.01565199880089
VEC2       4.71713254385773       8.23911137926134       0.01603196217689
VEC3       0.00124228285595       0.05980776819257      31.10135286431877
