400
C200NbSi199 optimized with Band in AMS.
C         6.30980540944787       0.00161401239441       1.95147452696242
C         6.30717753901384      -0.00108552786001       7.15904845830102
Si        6.31899490087907       0.00145197636838       0.00625354104152
Si        6.30827092295132      -0.00053889164817       5.21466113484987
C         6.30678003683754      -1.82027318453169       4.56021870222087
C         6.30687352927690       1.82016325617968       9.76745358441210
Si        6.30815294161422      -1.81989568684516       2.60573846145196
Si        6.30788583554131       1.81993317359126       7.81413488139051
C        -6.30980540944788       0.00161401239438       1.95147452696242
C        -6.30717753901385      -0.00108552786004       7.15904845830102
Si       -6.31899490087908       0.00145197636837       0.00625354104152
Si       -6.30827092295133      -0.00053889164820       5.21466113484987
C        -6.30678003683754      -1.82027318453173       4.56021870222087
C        -6.30687352927689       1.82016325617965       9.76745358441210
Si       -6.30815294161423      -1.81989568684521       2.60573846145196
Si       -6.30788583554131       1.81993317359122       7.81413488139051
C        -4.73167792224797       2.73183552212847       1.95017149157289
C        -4.73136806559889       2.73165662630871       7.16013290434525
Si       -4.73421282738486       2.73329905029162       0.00386533287202
Si       -4.73191485740091       2.73197231670280       5.21589486046090
C        -4.73339244822530       0.91226200270431       4.56567060134273
C        -4.72974438352504       4.55183106671957       9.76745358441210
Si       -4.73444275716766       0.91153031541334       2.61043932150938
Si       -4.73005127929070       4.55282279095519       7.81413488139051
C        -3.15630048045950       5.46364477132113       1.95147452696242
C        -3.15264867480362       5.46271873889462       7.15904845830102
Si       -3.16075489886024       5.47168412236141       0.00625354104152
Si       -3.15366876761845       5.46339231905465       5.21466113484987
C        -3.15673829336186       3.64310710489236       4.56567060134273
C        -3.15149582622205       7.28385266599097       9.77125046390844
Si       -3.15662978805143       3.64438254276375       2.61043932150938
Si       -3.15393438639099       7.28244476262100       7.81634429662822
C        -1.57519368080027       8.19393113397443       1.95126804994103
C        -1.57769746221036       8.19248557510332       7.15867942788357
Si       -1.57520326036264       8.19392560321151       0.00543884336079
Si       -1.57809706897246       8.19225486203166       5.21368781854868
C        -1.57698719878671       6.37196832024773       4.56021870222087
C        -1.57661256722089      10.01362731970301       9.76896493532942
Si       -1.57800057376146       6.37296854181804       2.60573846145196
Si       -1.57604395561444      10.01329903163895       7.81419065875495
C         0.00000000000000      10.92224662088195       1.95126804994103
C         0.00000000000001      10.92513773862415       7.15867942788357
Si        0.00000000000000      10.92225768240778       0.00543884336079
Si        0.00000000000000      10.92559916476750       5.21368781854868
C         0.00000000000000       9.10336962961028       4.56485394846159
C         0.00000000000001      12.74240355684886       9.77125046390844
Si        0.00000000000000       9.10336962961028       2.60952580649430
Si        0.00000000000000      12.74521936358880       7.81634429662822
C        -4.73157634686310      -2.73177687755269       1.95059230655773
C        -4.73096106733314      -2.73142164575045       7.15788116125441
Si       -4.73575745454060      -2.73419084119580       0.00458204597296
Si       -4.73030602529627      -2.73104345705413       5.21276997669250
C        -4.72979283805082      -4.55169513571602       4.56021870222087
C        -4.73156117222830      -0.91246818556514       9.77155827212458
Si       -4.73015236785277      -4.55307285497289       2.60573846145196
Si       -4.73158198907920      -0.91156079289313       7.81764540283846
C        -3.15908305259347       0.00110318826756       1.95497482129544
C        -3.15625226547903      -0.00145424130049       7.16493065661008
Si       -3.19094261232454      -0.00130751695486       0.00711303875842
Si       -3.15867842020860      -0.00062463446101       5.22233066971611
C        -3.15272578094134      -1.82022707830757       4.56320274665615
C        -3.15370296602365       1.82079125637787       9.76886304413524
Si       -3.15447416875455      -1.82123651048217       2.60780269545174
Si       -3.15425751663858       1.82111142632469       7.81601741749413
C        -1.58049691536160       2.73529458207705       1.95497482129544
C        -1.57686672283006       2.73412176330727       7.16493065661008
Si       -1.59433896326348       2.76409112276875       0.00711303875842
Si       -1.57879826079299       2.73580807151684       5.22233066971611
C        -1.58792604199217       0.91678952779739       4.58524477855251
C        -1.57555995726966       4.55388626749235       9.77155827212458
Si       -1.58814054467981       0.91691337098184       2.63234210796636
Si       -1.57635619080028       4.55345059907805       7.81764540283846
C         0.00000000000001       5.46355375510537       1.95059230655773
C         0.00000000000000       5.46284329150088       7.15788116125441
Si       -0.00000000000000       5.46838168239159       0.00458204597296
Si        0.00000000000001       5.46208691410823       5.21276997669250
C         0.00000000000000       3.64045415661512       4.56320274665615
C         0.00000000000001       7.28285424942480       9.76896493532942
Si        0.00000000000000       3.64247302096433       2.60780269545174
Si        0.00000000000000       7.28351082555291       7.81419065875495
C         1.57519368080027       8.19393113397443       1.95126804994103
C         1.57769746221036       8.19248557510334       7.15867942788357
Si        1.57520326036265       8.19392560321153       0.00543884336079
Si        1.57809706897246       8.19225486203166       5.21368781854868
C         1.57698719878671       6.37196832024774       4.56021870222087
C         1.57661256722089      10.01362731970301       9.76896493532942
Si        1.57800057376146       6.37296854181806       2.60573846145196
Si        1.57604395561443      10.01329903163895       7.81419065875495
C        -3.15350492898837      -5.46525878371554       1.95147452696242
C        -3.15452886421023      -5.46163321103460       7.15904845830102
Si       -3.15824000201883      -5.47313609872981       0.00625354104152
Si       -3.15460215533288      -5.46285342740648       5.21466113484987
C        -3.15168885209552      -7.28374122245098       4.56594192185028
C        -3.15600121495863      -3.64141808192724       9.77155827212458
Si       -3.15338065004507      -7.28276446244941       2.61095460078355
Si       -3.15522579827892      -3.64188980618495       7.81764540283846
C        -1.57858613723187      -2.73639777034462       1.95497482129544
C        -1.57938554264897      -2.73266752200679       7.16493065661008
Si       -1.59660364906105      -2.76278360581391       0.00711303875842
Si       -1.57988015941561      -2.73518343705586       5.22233066971611
C        -1.57665415486343      -4.55536910759670       4.56567060134273
C        -1.57798463016542      -0.91104985100310       9.77408845440722
Si       -1.57781296911623      -4.55591285817712       2.61043932150938
Si       -1.57740719054715      -0.91071646608405       7.81967628875935
C         0.00000000000000      -0.00000000000000       2.05931717820066
C         0.00000000000000      -0.00000000000000       7.16553267417460
Nb        0.00000000000000      -0.00000000000000      -0.03701766510152
Si       -0.00000000000000       0.00000000000001       5.21875802108382
C         0.00000000000000      -1.83357905559480       4.58524477855251
C        -0.00000000000000       1.82209970200619       9.77408845440722
Si       -0.00000000000000      -1.83382674196370       2.63234210796636
Si        0.00000000000000       1.82143293216810       7.81967628875935
C         1.58049691536160       2.73529458207706       1.95497482129544
C         1.57686672283006       2.73412176330728       7.16493065661008
Si        1.59433896326349       2.76409112276877       0.00711303875842
Si        1.57879826079299       2.73580807151685       5.22233066971611
C         1.58792604199217       0.91678952779740       4.58524477855251
C         1.57555995726966       4.55388626749235       9.77155827212458
Si        1.58814054467981       0.91691337098185       2.63234210796636
Si        1.57635619080028       4.55345059907806       7.81764540283846
C         3.15630048045951       5.46364477132114       1.95147452696242
C         3.15264867480362       5.46271873889464       7.15904845830102
Si        3.16075489886024       5.47168412236143       0.00625354104152
Si        3.15366876761845       5.46339231905467       5.21466113484987
C         3.15673829336187       3.64310710489237       4.56567060134273
C         3.15149582622206       7.28385266599099       9.77125046390844
Si        3.15662978805144       3.64438254276378       2.61043932150938
Si        3.15393438639100       7.28244476262101       7.81634429662822
C        -1.57748143034854      -8.19261030115691       1.95175670577499
C        -1.57507627371628      -8.19399891898598       7.16015944636098
Si       -1.57672416413187      -8.19304750901096       0.00586292161940
Si       -1.57513133677923      -8.19396712831179       5.21550565100971
C        -1.57652040032087     -10.01357410711847       4.56260788031675
C        -1.57712914575185      -6.37199432289926       9.76745358441210
Si       -1.57565322819043     -10.01307344505551       2.60738106786237
Si       -1.57783455625061      -6.37275596454645       7.81413488139051
C        -0.00000000000000      -5.46367104425697       1.95017149157289
C         0.00000000000000      -5.46331325261745       7.16013290434525
Si       -0.00000000000000      -5.46659810058326       0.00386533287202
Si       -0.00000000000000      -5.46394463340562       5.21589486046090
C         0.00000000000000      -7.28296067459389       4.56260788031675
C        -0.00000000000000      -3.64158251275575       9.76886304413524
Si       -0.00000000000000      -7.28396199871978       2.60738106786237
Si       -0.00000000000000      -3.64222285264938       7.81601741749413
C         1.57858613723187      -2.73639777034461       1.95497482129544
C         1.57938554264897      -2.73266752200679       7.16493065661008
Si        1.59660364906106      -2.76278360581390       0.00711303875842
Si        1.57988015941560      -2.73518343705585       5.22233066971611
C         1.57665415486343      -4.55536910759669       4.56567060134273
C         1.57798463016541      -0.91104985100309       9.77408845440722
Si        1.57781296911622      -4.55591285817711       2.61043932150938
Si        1.57740719054715      -0.91071646608404       7.81967628875935
C         3.15908305259347       0.00110318826757       1.95497482129544
C         3.15625226547903      -0.00145424130048       7.16493065661008
Si        3.19094261232454      -0.00130751695485       0.00711303875842
Si        3.15867842020860      -0.00062463446099       5.22233066971611
C         3.15272578094134      -1.82022707830755       4.56320274665615
C         3.15370296602364       1.82079125637788       9.76886304413524
Si        3.15447416875456      -1.82123651048215       2.60780269545174
Si        3.15425751663858       1.82111142632469       7.81601741749413
C         4.73167792224798       2.73183552212850       1.95017149157289
C         4.73136806559889       2.73165662630874       7.16013290434525
Si        4.73421282738487       2.73329905029165       0.00386533287202
Si        4.73191485740091       2.73197231670283       5.21589486046090
C         4.73339244822530       0.91226200270434       4.56567060134273
C         4.72974438352504       4.55183106671959       9.76745358441210
Si        4.73444275716766       0.91153031541335       2.61043932150938
Si        4.73005127929071       4.55282279095521       7.81413488139051
C        -0.00000000000001     -10.92488828651700       1.95175670577499
C        -0.00000000000001     -10.92211105085885       7.16015944636098
Si       -0.00000000000001     -10.92401387080892       0.00586292161940
Si       -0.00000000000000     -10.92217463220726       5.21550565100971
C        -0.00000000000000     -12.74262644392886       4.56594192185028
C        -0.00000000000000      -9.10336962961028       9.77256309416363
Si       -0.00000000000001     -12.74457996393204       2.61095460078355
Si       -0.00000000000000      -9.10336962961028       7.81841019835387
C         1.57748143034854      -8.19261030115690       1.95175670577499
C         1.57507627371627      -8.19399891898598       7.16015944636098
Si        1.57672416413187      -8.19304750901094       0.00586292161940
Si        1.57513133677922      -8.19396712831177       5.21550565100971
C         1.57652040032086     -10.01357410711845       4.56260788031675
C         1.57712914575185      -6.37199432289924       9.76745358441210
Si        1.57565322819043     -10.01307344505550       2.60738106786237
Si        1.57783455625060      -6.37275596454643       7.81413488139051
C         3.15350492898837      -5.46525878371553       1.95147452696242
C         3.15452886421023      -5.46163321103460       7.15904845830102
Si        3.15824000201883      -5.47313609872980       0.00625354104152
Si        3.15460215533288      -5.46285342740646       5.21466113484987
C         3.15168885209551      -7.28374122245097       4.56594192185028
C         3.15600121495863      -3.64141808192722       9.77155827212458
Si        3.15338065004506      -7.28276446244938       2.61095460078355
Si        3.15522579827892      -3.64188980618493       7.81764540283846
C         4.73157634686310      -2.73177687755267       1.95059230655773
C         4.73096106733314      -2.73142164575042       7.15788116125441
Si        4.73575745454059      -2.73419084119579       0.00458204597296
Si        4.73030602529626      -2.73104345705410       5.21276997669250
C         4.72979283805083      -4.55169513571601       4.56021870222087
C         4.73156117222830      -0.91246818556511       9.77155827212458
Si        4.73015236785277      -4.55307285497287       2.60573846145196
Si        4.73158198907920      -0.91156079289310       7.81764540283846
C         6.30746599875987       0.00037494319579      -8.46712240212967
C         6.30952623956756       0.00050495331216      -3.26122319049384
Si        6.30757479313950      -0.00014239239765     -10.41107603744520
Si        6.30839140039783       0.00057159286367      -5.20531361086564
C         6.30691349444891      -1.82014588727139      -5.85670145133918
C         6.30940247587024       1.82114204907401      -0.64880173462841
Si        6.30782764299610      -1.82016708146676      -7.81071716808252
Si        6.30857540112721       1.82062209665204      -2.60356354263985
C        -6.30746599875988       0.00037494319575      -8.46712240212967
C        -6.30952623956755       0.00050495331213      -3.26122319049384
Si       -6.30757479313951      -0.00014239239768     -10.41107603744520
Si       -6.30839140039783       0.00057159286366      -5.20531361086564
C        -6.30691349444891      -1.82014588727142      -5.85670145133918
C        -6.30940247587024       1.82114204907398      -0.64880173462841
Si       -6.30782764299610      -1.82016708146679      -7.81071716808252
Si       -6.30857540112720       1.82062209665200      -2.60356354263985
C        -4.73147742053986       2.73171976241332      -8.46909493841441
C        -4.73221415210446       2.73214511458046      -3.25961670513886
Si       -4.73060393443850       2.73121545497756     -10.41261944251403
Si       -4.73245963592853       2.73228684473237      -5.20480673304174
C        -4.73420246895467       0.91378553250705      -5.85920699494081
C        -4.73185651633324       4.55353180226707      -0.64880173462841
Si       -4.73201767126221       0.91174495207600      -7.81223889743056
Si       -4.73099268695554       4.55307551073976      -2.60356354263985
C        -3.15405770971245       5.46223831683474      -8.46712240212967
C        -3.15520042217982       5.46395753265393      -3.26122319049384
Si       -3.15366408113607       5.46259120332803     -10.41107603744520
Si       -3.15469071413947       5.46294141332798      -5.20531361086564
C        -3.15846271923914       3.64304683852021      -5.85920699494081
C        -3.15142361883544       7.28389435494508      -0.64575433424298
Si       -3.15560312590116       3.64217503843196      -7.81223889743056
Si       -3.15498483992848       7.28183828298837      -2.60107076256708
C        -1.57499646667148       8.19404499560479      -8.46420343932168
C        -1.57807665932925       8.19226664554468      -3.25755621470007
Si       -1.57509972725154       8.19398537808109     -10.40939988974319
Si       -1.57840636734839       8.19207628853106      -5.20247128256212
C        -1.57716417025365       6.37202024929934      -5.85670145133918
C        -1.57448741407337      10.01240036196121      -0.64715730569922
Si       -1.57760288981564       6.37282252226173      -7.81071716808252
Si       -1.57561770833243      10.01305293765593      -2.60175565597149
C        -0.00000000000000      10.92201889762124      -8.46420343932168
C         0.00000000000000      10.92557559774149      -3.25755621470007
Si        0.00000000000001      10.92213813266865     -10.40939988974319
Si       -0.00000000000001      10.92595631176870      -5.20247128256212
C         0.00000000000000       9.10336962961028      -5.85067939033466
C         0.00000000000001      12.74232017894064      -0.64575433424298
Si        0.00000000000000       9.10336962961028      -7.80567769945673
Si        0.00000000000001      12.74643232285406      -2.60107076256708
C        -4.73187065203542      -2.73194679472317      -8.46537192896302
C        -4.73116477474903      -2.73153925628184      -3.25895778171128
Si       -4.73181038540358      -2.73191199976705     -10.40928409376161
Si       -4.73045647183392      -2.73113031740314      -5.20476293357092
C        -4.72974932419525      -4.55187436202795      -5.85670145133918
C        -4.75986736779196      -0.91227787807453      -0.64643195349033
Si       -4.73022475318045      -4.55265544079497      -7.81071716808252
Si       -4.73727659220481      -0.90991227808831      -2.60217843063806
C        -3.15437521365642       0.00063291479089      -8.46464969631952
C        -3.16591559065717       0.00285494539314      -3.27122431405549
Si       -3.15457880765120       0.00057955532973     -10.40933590667352
Si       -3.16003153051823       0.00114430134211      -5.21068943042407
C        -3.15442149651912      -1.82120610015287      -5.85920318550932
C        -3.15687714995667       1.82262387232606      -0.65136420448707
Si       -3.15488337102212      -1.82147276352151      -7.81218684793676
Si       -3.15439352798420       1.82118995251169      -2.60765792830515
C        -1.57773572711556       2.73145261069896      -8.46464969631952
C        -1.58543025056546       2.74033585504975      -3.27122431405549
Si       -1.57779131346405       2.73165560800110     -10.40933590667352
Si       -1.58100675929098       2.73609543151754      -5.21068943042407
C        -1.57846194092369       0.91132542649787      -5.85083003981360
C        -1.58987786617289       4.57830499818968      -0.64643195349033
Si       -1.57671373017439       0.91031609655116      -7.80732525574568
Si       -1.58063114806256       4.55755801264689      -2.60217843063806
C         0.00000000000001       5.46389358944631      -8.46537192896302
C        -0.00000000000000       5.46307851256366      -3.25895778171128
Si        0.00000000000001       5.46382399953407     -10.40928409376161
Si        0.00000000000000       5.46226063480624      -5.20476293357092
C         0.00000000000000       3.64241220030571      -5.85920318550932
C         0.00000000000000       7.28530816490838      -0.64715730569922
Si        0.00000000000000       3.64294552704300      -7.81218684793676
Si       -0.00000000000000       7.28400301351893      -2.60175565597149
C         1.57499646667148       8.19404499560479      -8.46420343932168
C         1.57807665932925       8.19226664554467      -3.25755621470007
Si        1.57509972725155       8.19398537808110     -10.40939988974319
Si        1.57840636734840       8.19207628853108      -5.20247128256212
C         1.57716417025365       6.37202024929935      -5.85670145133918
C         1.57448741407338      10.01240036196122      -0.64715730569922
Si        1.57760288981564       6.37282252226175      -7.81071716808252
Si        1.57561770833243      10.01305293765594      -2.60175565597149
C        -3.15340828904742      -5.46261326003053      -8.46712240212967
C        -3.15432581738774      -5.46446248596610      -3.26122319049384
Si       -3.15391071200344      -5.46244881093037     -10.41107603744520
Si       -3.15370068625836      -5.46351300619167      -5.20531361086564
C        -3.15143615690530      -7.28388711608708      -5.85450636919318
C        -3.16998950161907      -3.66602712011516      -0.64643195349033
Si       -3.15398418250791      -7.28241601281953      -7.80942035333444
Si       -3.15664544414224      -3.64764573455860      -2.60217843063806
C        -1.57663948654086      -2.73208552548988      -8.46464969631952
C        -1.58048534009170      -2.74319080044290      -3.27122431405549
Si       -1.57678749418715      -2.73223516333084     -10.40933590667352
Si       -1.57902477122725      -2.73723973285967      -5.21068943042407
C        -1.57573974971552      -4.55683237102730      -5.85920699494081
C        -1.70409112817716      -0.98385747157674      -0.69528975657955
Si       -1.57641454536106      -4.55391999050797      -7.81223889743056
Si       -1.60772286995634      -0.92821923175162      -2.62210472441413
C        -0.00000000000000       0.00000000000000      -8.46076214393743
C        -0.00000000000000       0.00000000000000      -3.22944874627350
Si       -0.00000000000000       0.00000000000000     -10.40608726536925
Si       -0.00000000000000      -0.00000000000000      -5.19511832353314
C        -0.00000000000000      -1.82265085299575      -5.85083003981360
C         0.00000000000000       1.96771494315348      -0.69528975657955
Si       -0.00000000000000      -1.82063219310233      -7.80732525574568
Si        0.00000000000000       1.85643846350323      -2.62210472441413
C         1.57773572711556       2.73145261069897      -8.46464969631952
C         1.58543025056547       2.74033585504976      -3.27122431405549
Si        1.57779131346405       2.73165560800111     -10.40933590667352
Si        1.58100675929098       2.73609543151756      -5.21068943042407
C         1.57846194092369       0.91132542649788      -5.85083003981360
C         1.58987786617289       4.57830499818969      -0.64643195349033
Si        1.57671373017439       0.91031609655117      -7.80732525574568
Si        1.58063114806257       4.55755801264689      -2.60217843063806
C         3.15405770971245       5.46223831683476      -8.46712240212967
C         3.15520042217982       5.46395753265394      -3.26122319049384
Si        3.15366408113607       5.46259120332803     -10.41107603744520
Si        3.15469071413947       5.46294141332799      -5.20531361086564
C         3.15846271923916       3.64304683852024      -5.85920699494081
C         3.15142361883544       7.28389435494508      -0.64575433424298
Si        3.15560312590116       3.64217503843196      -7.81223889743056
Si        3.15498483992848       7.28183828298839      -2.60107076256708
C        -1.57766395493837      -8.19250492053583      -8.46586046658289
C        -1.57456262744063      -8.19429547280151      -3.25801688549160
Si       -1.57818516234225      -8.19220400130091     -10.41038941662723
Si       -1.57501840193707      -8.19403233127329      -5.20321038572086
C        -1.57616910588685     -10.01337128718244      -5.85621556596862
C        -1.57754595953700      -6.37467385134107      -0.64880173462841
Si       -1.57598859876326     -10.01326707134604      -7.81098535490220
Si       -1.57758271417167      -6.37369760739179      -2.60356354263985
C        -0.00000000000001      -5.46343952482666      -8.46909493841441
C         0.00000000000000      -5.46429022916095      -3.25961670513886
Si       -0.00000000000000      -5.46243090995515     -10.41261944251403
Si       -0.00000000000000      -5.46457368946475      -5.20480673304174
C        -0.00000000000000      -7.28336631446599      -5.85621556596862
C        -0.00000000000000      -3.64524774465213      -0.65136420448707
Si       -0.00000000000000      -7.28357474613877      -7.81098535490220
Si        0.00000000000000      -3.64237990502339      -2.60765792830515
C         1.57663948654085      -2.73208552548987      -8.46464969631952
C         1.58048534009170      -2.74319080044290      -3.27122431405549
Si        1.57678749418715      -2.73223516333083     -10.40933590667352
Si        1.57902477122725      -2.73723973285967      -5.21068943042407
C         1.57573974971552      -4.55683237102729      -5.85920699494081
C         1.70409112817715      -0.98385747157673      -0.69528975657955
Si        1.57641454536105      -4.55391999050797      -7.81223889743056
Si        1.60772286995634      -0.92821923175161      -2.62210472441413
C         3.15437521365642       0.00063291479092      -8.46464969631952
C         3.16591559065716       0.00285494539315      -3.27122431405549
Si        3.15457880765120       0.00057955532974     -10.40933590667352
Si        3.16003153051823       0.00114430134213      -5.21068943042407
C         3.15442149651912      -1.82120610015285      -5.85920318550932
C         3.15687714995667       1.82262387232608      -0.65136420448707
Si        3.15488337102212      -1.82147276352149      -7.81218684793676
Si        3.15439352798421       1.82118995251171      -2.60765792830515
C         4.73147742053987       2.73171976241334      -8.46909493841441
C         4.73221415210446       2.73214511458050      -3.25961670513886
Si        4.73060393443851       2.73121545497759     -10.41261944251403
Si        4.73245963592854       2.73228684473240      -5.20480673304174
C         4.73420246895467       0.91378553250708      -5.85920699494081
C         4.73185651633324       4.55353180226709      -0.64880173462841
Si        4.73201767126220       0.91174495207602      -7.81223889743056
Si        4.73099268695554       4.55307551073978      -2.60356354263985
C        -0.00000000000001     -10.92509904775915      -8.46586046658289
C        -0.00000000000000     -10.92151794322782      -3.25801688549160
Si        0.00000000000000     -10.92570088622902     -10.41038941662723
Si       -0.00000000000000     -10.92204422628424      -5.20321038572086
C        -0.00000000000000     -12.74233465665668      -5.85450636919318
C        -0.00000000000000      -9.10336962961028      -0.64338497697863
Si       -0.00000000000001     -12.74527686319180      -7.80942035333444
Si       -0.00000000000000      -9.10336962961028      -2.59872600816978
C         1.57766395493836      -8.19250492053584      -8.46586046658289
C         1.57456262744063      -8.19429547280150      -3.25801688549160
Si        1.57818516234224      -8.19220400130090     -10.41038941662723
Si        1.57501840193707      -8.19403233127329      -5.20321038572086
C         1.57616910588684     -10.01337128718242      -5.85621556596862
C         1.57754595953700      -6.37467385134106      -0.64880173462841
Si        1.57598859876325     -10.01326707134601      -7.81098535490220
Si        1.57758271417167      -6.37369760739178      -2.60356354263985
C         3.15340828904741      -5.46261326003052      -8.46712240212967
C         3.15432581738773      -5.46446248596608      -3.26122319049384
Si        3.15391071200343      -5.46244881093033     -10.41107603744520
Si        3.15370068625835      -5.46351300619164      -5.20531361086564
C         3.15143615690530      -7.28388711608706      -5.85450636919318
C         3.16998950161908      -3.66602712011516      -0.64643195349033
Si        3.15398418250790      -7.28241601281951      -7.80942035333444
Si        3.15664544414224      -3.64764573455858      -2.60217843063806
C         4.73187065203543      -2.73194679472314      -8.46537192896302
C         4.73116477474903      -2.73153925628182      -3.25895778171128
Si        4.73181038540359      -2.73191199976703     -10.40928409376161
Si        4.73045647183391      -2.73113031740311      -5.20476293357092
C         4.72974932419525      -4.55187436202793      -5.85670145133918
C         4.75986736779196      -0.91227787807452      -0.64643195349033
Si        4.73022475318045      -4.55265544079495      -7.81071716808252
Si        4.73727659220480      -0.90991227808829      -2.60217843063806
VEC1       7.88374935928222     -13.65505444441539       0.00000000000000
VEC2       7.88374935928223      13.65505444441539      -0.00000000000000
VEC3       0.00000000000000      -0.00000000000000      20.83126701513756
