400
C200ReSi199 optimized with Band in AMS.
C         6.30862519731623       0.00147614750294       1.95109053835022
C         6.30635844072711      -0.00102250293154       7.15873766650095
Si        6.31493767727734       0.00176497691875       0.00599912685033
Si        6.30731401821241      -0.00049129380793       5.21453140338159
C         6.30584960569084      -1.81995935594250       4.55998264657976
C         6.30593682594133       1.81992256031940       9.76724042362453
Si        6.30717170799651      -1.81957645424563       2.60558260443196
Si        6.30699678346904       1.81969908484266       7.81399775850578
C        -6.30862519731622       0.00147614750290       1.95109053835022
C        -6.30635844072710      -0.00102250293157       7.15873766650095
Si       -6.31493767727734       0.00176497691873       0.00599912685033
Si       -6.30731401821242      -0.00049129380797       5.21453140338159
C        -6.30584960569085      -1.81995935594255       4.55998264657976
C        -6.30593682594134       1.81992256031937       9.76724042362453
Si       -6.30717170799652      -1.81957645424567       2.60558260443196
Si       -6.30699678346905       1.81969908484262       7.81399775850578
C        -4.73143203911403       2.73169356143490       1.95060421500345
C        -4.73079258940326       2.73132437497225       7.15997904926094
Si       -4.73391014216638       2.73312429489925       0.00442061426710
Si       -4.73133230920912       2.73163598234744       5.21600559641611
C        -4.73266872000337       0.91230827159816       4.56576959539114
C        -4.72906758312767       4.55114020576532       9.76724042362453
Si       -4.73414789882748       0.91169735533313       2.61086250815247
Si       -4.72940402645155       4.55216989364962       7.81399775850578
C        -3.15559097989538       5.46269161007902       1.95109053835022
C        -3.15229370684940       5.46197786650587       7.15873766650095
Si       -3.15899735348740       5.46801396337830       0.00599912685033
Si       -3.15323153618781       5.46253981632162       5.21453140338159
C        -3.15641649928838       3.64245720341981       4.56576959539114
C        -3.15106408334580       7.28278106928296       9.77090829801301
Si       -3.15662701969533       3.64404366799074       2.61086250815247
Si       -3.15349414031831       7.28137807523574       7.81615548220569
C        -1.57495539606801       8.19274784415493       1.95129097214410
C        -1.57752517532716       8.19126418140788       7.15840211537887
Si       -1.57495841211759       8.19274610283789       0.00563118874442
Si       -1.57792188732835       8.19103513962721       5.21348265793748
C        -1.57679376674404       6.37100562894362       4.55998264657976
C        -1.57643373102489      10.01220320500327       9.76851239474891
Si       -1.57778642049352       6.37195915227829       2.60558260443196
Si       -1.57587556795329      10.01188094940359       7.81384329596143
C        -0.00000000000002      10.92065060979946       1.95129097214410
C        -0.00000000000002      10.92361793529353       7.15840211537887
Si       -0.00000000000001      10.92065409243352       0.00563118874442
Si       -0.00000000000002      10.92407601885487       5.21348265793748
C        -0.00000000000001       9.10204876603645       4.56475332320541
C        -0.00000000000002      12.74058415954335       9.77090829801301
Si       -0.00000000000001       9.10204876603645       2.60955666559680
Si       -0.00000000000002      12.74339014763780       7.81615548220569
C        -4.73054430716492      -2.73118102915514       1.95058949949442
C        -4.73018470716171      -2.73097341399649       7.15727232157713
Si       -4.73403167657040      -2.73319446282017       0.00506988770485
Si       -4.72963388675491      -2.73065539768634       5.21235212637757
C        -4.72905583894681      -4.55104627300111       4.55998264657976
C        -4.73078025530878      -0.91225328773463       9.77055034202420
Si       -4.72938528750299      -4.55238269803267       2.60558260443196
Si       -4.73070935234644      -0.91127143085124       7.81659931789206
C        -3.16025495031814       0.00201464054264       1.95649902748067
C        -3.15527518600807      -0.00116678137792       7.16330222660007
Si       -3.18479958838309       0.00376056283606       0.01133514815079
Si       -3.15748739902969      -0.00073322144057       5.22031962421560
C        -3.15245150708018      -1.82006872622000       4.56243635637126
C        -3.15319024247385       1.82049523529838       9.76805488531692
Si       -3.15343733515383      -1.82063789432369       2.60736695901945
Si       -3.15383023756819       1.82086473663837       7.81519267277239
C        -1.58187220504850       2.73585374913973       1.95649902748067
C        -1.57662713069011       2.73313185770262       7.16330222660007
Si       -1.59565653714010       2.75623706808395       0.01133514815079
Si       -1.57810871112072       2.73483091040924       5.22031962421560
C        -1.58464975526829       0.91489796277542       4.58104243418742
C        -1.57535560579034       4.55310252468655       9.77055034202420
Si       -1.58990647227479       0.91793292975418       2.62765614607796
Si       -1.57617046731307       4.55255019247826       7.81659931789206
C        -0.00000000000000       5.46236205831025       1.95058949949442
C        -0.00000000000001       5.46194682799296       7.15727232157713
Si       -0.00000000000001       5.46638892564030       0.00506988770485
Si       -0.00000000000001       5.46131079537267       5.21235212637757
C        -0.00000000000000       3.64013745243997       4.56243635637126
C        -0.00000000000000       7.28173988810280       9.76851239474891
Si       -0.00000000000000       3.64127578864737       2.60736695901945
Si       -0.00000000000001       7.28238439930207       7.81384329596143
C         1.57495539606798       8.19274784415493       1.95129097214410
C         1.57752517532714       8.19126418140789       7.15840211537887
Si        1.57495841211756       8.19274610283790       0.00563118874442
Si        1.57792188732832       8.19103513962723       5.21348265793748
C         1.57679376674402       6.37100562894363       4.55998264657976
C         1.57643373102485      10.01220320500327       9.76851239474891
Si        1.57778642049350       6.37195915227831       2.60558260443196
Si        1.57587556795326      10.01188094940360       7.81384329596143
C        -3.15303421742084      -5.46416775758195       1.95109053835022
C        -3.15406473387770      -5.46095536357433       7.15873766650095
Si       -3.15594032378994      -5.46977894029706       0.00599912685033
Si       -3.15408248202460      -5.46204852251369       5.21453140338159
C        -3.15133181328865      -7.28262649532840       4.56529609917879
C        -3.15542464951843      -3.64084923695195       9.77055034202420
Si       -3.15309937494264      -7.28160599313165       2.61006485370462
Si       -3.15453888503337      -3.64127876162705       7.81659931789206
C        -1.57838274526964      -2.73786838968238       1.95649902748067
C        -1.57864805531797      -2.73196507632471       7.16330222660007
Si       -1.58914305124298      -2.75999763092002       0.01133514815079
Si       -1.57937868790896      -2.73409768896869       5.22031962421560
C        -1.57625222071498      -4.55476547501801       4.56576959539114
C        -1.57778677377451      -0.91093561856255       9.77318213175197
Si       -1.57752087913214      -4.55574102332391       2.61086250815247
Si       -1.57723683664755      -0.91061811221427       7.81899021905289
C         0.00000000000000       0.00000000000000       2.00406663832140
C         0.00000000000000       0.00000000000000       7.16530143461471
Re        0.00000000000000      -0.00000000000000      -0.02479952312973
Si       -0.00000000000000       0.00000000000001       5.21991259371580
C         0.00000000000000      -1.82979592555084       4.58104243418742
C        -0.00000000000000       1.82187123712510       9.77318213175197
Si        0.00000000000000      -1.83586585950836       2.62765614607796
Si        0.00000000000000       1.82123622442853       7.81899021905289
C         1.58187220504849       2.73585374913973       1.95649902748067
C         1.57662713069009       2.73313185770263       7.16330222660007
Si        1.59565653714010       2.75623706808396       0.01133514815079
Si        1.57810871112071       2.73483091040925       5.22031962421560
C         1.58464975526828       0.91489796277543       4.58104243418742
C         1.57535560579033       4.55310252468656       9.77055034202420
Si        1.58990647227478       0.91793292975418       2.62765614607796
Si        1.57617046731306       4.55255019247827       7.81659931789206
C         3.15559097989537       5.46269161007903       1.95109053835022
C         3.15229370684938       5.46197786650588       7.15873766650095
Si        3.15899735348738       5.46801396337831       0.00599912685033
Si        3.15323153618779       5.46253981632165       5.21453140338159
C         3.15641649928836       3.64245720341982       4.56576959539114
C         3.15106408334579       7.28278106928298       9.77090829801301
Si        3.15662701969533       3.64404366799076       2.61086250815247
Si        3.15349414031829       7.28137807523575       7.81615548220569
C        -1.57724959989585      -8.19142328495733       1.95172494911079
C        -1.57489923373068      -8.19278026949550       7.15999522834001
Si       -1.57685136010141      -8.19165320880985       0.00594361042525
Si       -1.57497108282121      -8.19273878740374       5.21531930175819
C        -1.57624105124157     -10.01209196127853       4.56260893505613
C        -1.57686924281366      -6.37106276608472       9.76724042362453
Si       -1.57530502247429     -10.01155154481776       2.60750241926592
Si       -1.57759275701750      -6.37186897849227       7.81399775850578
C         0.00000000000001      -5.46338712286980       1.95060421500345
C         0.00000000000001      -5.46264874994453       7.15997904926094
Si        0.00000000000000      -5.46624858979852       0.00442061426710
Si        0.00000000000001      -5.46327196469493       5.21600559641611
C         0.00000000000001      -7.28196237555230       4.56260893505613
C        -0.00000000000000      -3.64099047059677       9.76805488531692
Si        0.00000000000000      -7.28304320847381       2.60750241926592
Si        0.00000000000000      -3.64172947327677       7.81519267277239
C         1.57838274526965      -2.73786838968237       1.95649902748067
C         1.57864805531798      -2.73196507632470       7.16330222660007
Si        1.58914305124299      -2.75999763092001       0.01133514815079
Si        1.57937868790897      -2.73409768896868       5.22031962421560
C         1.57625222071500      -4.55476547501800       4.56576959539114
C         1.57778677377451      -0.91093561856255       9.77318213175197
Si        1.57752087913215      -4.55574102332390       2.61086250815247
Si        1.57723683664756      -0.91061811221426       7.81899021905289
C         3.16025495031815       0.00201464054265       1.95649902748067
C         3.15527518600808      -0.00116678137791       7.16330222660007
Si        3.18479958838309       0.00376056283607       0.01133514815079
Si        3.15748739902968      -0.00073322144055       5.22031962421560
C         3.15245150708018      -1.82006872621998       4.56243635637126
C         3.15319024247385       1.82049523529839       9.76805488531692
Si        3.15343733515383      -1.82063789432368       2.60736695901945
Si        3.15383023756819       1.82086473663840       7.81519267277239
C         4.73143203911401       2.73169356143492       1.95060421500345
C         4.73079258940325       2.73132437497227       7.15997904926094
Si        4.73391014216636       2.73312429489928       0.00442061426710
Si        4.73133230920911       2.73163598234747       5.21600559641611
C         4.73266872000336       0.91230827159818       4.56576959539114
C         4.72906758312765       4.55114020576535       9.76724042362453
Si        4.73414789882747       0.91169735533316       2.61086250815247
Si        4.72940402645153       4.55216989364964       7.81399775850578
C         0.00000000000002     -10.92329972819464       1.95172494911079
C         0.00000000000002     -10.92058575911831       7.15999522834001
Si        0.00000000000002     -10.92283988048960       0.00594361042525
Si        0.00000000000002     -10.92066872330184       5.21531930175819
C         0.00000000000002     -12.74089330745253       4.56529609917879
C         0.00000000000001      -9.10204876603645       9.77230411993899
Si        0.00000000000003     -12.74293431184602       2.61006485370462
Si        0.00000000000001      -9.10204876603645       7.81816916055986
C         1.57724959989588      -8.19142328495732       1.95172494911079
C         1.57489923373070      -8.19278026949549       7.15999522834001
Si        1.57685136010144      -8.19165320880984       0.00594361042525
Si        1.57497108282123      -8.19273878740373       5.21531930175819
C         1.57624105124160     -10.01209196127850       4.56260893505613
C         1.57686924281368      -6.37106276608472       9.76724042362453
Si        1.57530502247432     -10.01155154481775       2.60750241926592
Si        1.57759275701751      -6.37186897849226       7.81399775850578
C         3.15303421742086      -5.46416775758193       1.95109053835022
C         3.15406473387773      -5.46095536357432       7.15873766650095
Si        3.15594032378995      -5.46977894029704       0.00599912685033
Si        3.15408248202462      -5.46204852251368       5.21453140338159
C         3.15133181328867      -7.28262649532838       4.56529609917879
C         3.15542464951845      -3.64084923695192       9.77055034202420
Si        3.15309937494267      -7.28160599313164       2.61006485370462
Si        3.15453888503337      -3.64127876162703       7.81659931789206
C         4.73054430716493      -2.73118102915511       1.95058949949442
C         4.73018470716173      -2.73097341399647       7.15727232157713
Si        4.73403167657042      -2.73319446282015       0.00506988770485
Si        4.72963388675492      -2.73065539768632       5.21235212637757
C         4.72905583894683      -4.55104627300109       4.55998264657976
C         4.73078025530878      -0.91225328773461       9.77055034202420
Si        4.72938528750301      -4.55238269803266       2.60558260443196
Si        4.73070935234644      -0.91127143085121       7.81659931789206
C         6.30647618931957       0.00036917428557      -8.46671080841815
C         6.30809424897199       0.00040299336178      -3.26071004319558
Si        6.30656996907870      -0.00012966163988     -10.41068813858206
Si        6.30727736246814       0.00054311150420      -5.20497216901119
C         6.30598101997368      -1.81988125996743      -5.85651660861896
C         6.30842264752060       1.82095302059597      -0.64869773362142
Si        6.30691315842369      -1.81989992253012      -7.81046773789273
Si        6.30750319186052       1.82044824073842      -2.60325495886217
C        -6.30647618931957       0.00036917428554      -8.46671080841815
C        -6.30809424897200       0.00040299336175      -3.26071004319558
Si       -6.30656996907870      -0.00012966163992     -10.41068813858206
Si       -6.30727736246813       0.00054311150417      -5.20497216901119
C        -6.30598101997368      -1.81988125996747      -5.85651660861896
C        -6.30842264752061       1.82095302059594      -0.64869773362142
Si       -6.30691315842369      -1.81989992253015      -7.81046773789273
Si       -6.30750319186053       1.82044824073838      -2.60325495886217
C        -4.73063404003688       2.73123283645288      -8.46844180268768
C        -4.73125324686784       2.73159033568343      -3.25912520576659
Si       -4.72979739183946       2.73074979739089     -10.41205637359999
Si       -4.73150388615065       2.73173504234083      -5.20417373171345
C        -4.73313990547452       0.91342201419825      -5.85839263889789
C        -4.73120289869441       4.55277776026396      -0.64869773362142
Si       -4.73113252789958       0.91146642229916      -7.81163034686726
Si       -4.73030601868440       4.55223387823344      -2.60325495886217
C        -3.15355780896950       5.46138400116967      -8.46671080841815
C        -3.15439612697486       5.46276837239539      -3.26071004319558
Si       -3.15317269426531       5.46171463478613     -10.41068813858206
Si       -3.15410902959379       5.46199086885982      -5.20497216901119
C        -3.15761662140891       3.64230839070767      -5.85839263889789
C        -3.15108522603118       7.28276886254787      -0.64576132870742
Si       -3.15491934035739       3.64154774668235      -7.81163034686726
Si       -3.15452200351390       7.28078463814307      -2.60117737539536
C        -1.57477798017484       8.19285027526860      -8.46387800641239
C        -1.57782776696120       8.19108948004653      -3.25744901081295
Si       -1.57489607139997       8.19278209526798     -10.40897857416545
Si       -1.57817056325543       8.19089156651378      -5.20238696493516
C        -1.57692710698382       6.37108038906344      -5.85651660861896
C        -1.57493305540800      10.01133678953186      -0.64707433129884
Si       -1.57737701395543       6.37189697592233      -7.81046773789273
Si       -1.57560060676367      10.01172220048677      -2.60185218736015
C        -0.00000000000002      10.92044574757210      -8.46387800641239
C        -0.00000000000002      10.92396733801623      -3.25744901081295
Si       -0.00000000000002      10.92058210757331     -10.40897857416545
Si       -0.00000000000002      10.92436316508174      -5.20238696493516
C        -0.00000000000001       9.10204876603645      -5.85053855926821
C        -0.00000000000002      12.74060857301352      -0.64576132870742
Si       -0.00000000000001       9.10204876603645      -7.80545579487567
Si       -0.00000000000002      12.74457702182313      -2.60117737539536
C        -4.73107406671458      -2.73148688597375      -8.46511354728340
C        -4.73045406344911      -2.73112892692153      -3.25938051482941
Si       -4.73096919349236      -2.73142633739067     -10.40916831451174
Si       -4.72968259280750      -2.73068351813892      -5.20488668504211
C        -4.72905391298986      -4.55119912909602      -5.85651660861896
C        -4.75152503674810      -0.91292984708255      -0.64762791236504
Si       -4.72953614446826      -4.55199705339222      -7.81046773789273
Si       -4.73509181040135      -0.90993453712475      -2.60308210889310
C        -3.15413093647978       0.00053018041447      -8.46492015491759
C        -3.16355259339361       0.00248257131839      -3.26864417206741
Si       -3.15419835585060       0.00052302133348     -10.40932862196250
Si       -3.15856810162182       0.00116630704347      -5.20953027943044
C        -3.15371972423008      -1.82080093173288      -5.85859720788680
C        -3.15892346946599       1.82380531544561      -0.64952380127449
Si       -3.15420909910293      -1.82108347244746      -7.81183458127700
Si       -3.15394285030695       1.82092975363340      -2.60531809309055
C        -1.57752461794743       2.73129242764666      -8.46492015491759
C        -1.58392626652524       2.73847562642781      -3.26864417206741
Si       -1.57755212768683       2.73135439407498     -10.40932862196250
Si       -1.58029410233918       2.73481706206594      -5.20953027943044
C        -1.57881076616852       0.91152682084687      -5.85277602232118
C        -1.58514207892754       4.57140631208291      -0.64762791236504
Si       -1.57702911048024       0.91049818145564      -7.80807852968096
Si       -1.57951948026983       4.55567706562161      -2.60308210889310
C        -0.00000000000001       5.46297377194746      -8.46511354728340
C        -0.00000000000001       5.46225785384304      -3.25938051482941
Si       -0.00000000000000       5.46285267478132     -10.40916831451174
Si       -0.00000000000001       5.46136703627781      -5.20488668504211
C        -0.00000000000001       3.64160186346574      -5.85859720788680
C        -0.00000000000001       7.28347271904555      -0.64707433129884
Si       -0.00000000000000       3.64216694489490      -7.81183458127700
Si       -0.00000000000000       7.28270189713577      -2.60185218736015
C         1.57477798017481       8.19285027526860      -8.46387800641239
C         1.57782776696117       8.19108948004653      -3.25744901081295
Si        1.57489607139993       8.19278209526798     -10.40897857416545
Si        1.57817056325539       8.19089156651378      -5.20238696493516
C         1.57692710698380       6.37108038906345      -5.85651660861896
C         1.57493305540796      10.01133678953187      -0.64707433129884
Si        1.57737701395541       6.37189697592234      -7.81046773789273
Si        1.57560060676364      10.01172220048678      -2.60185218736015
C        -3.15291838035007      -5.46175317545521      -8.46671080841815
C        -3.15369812199715      -5.46317136575717      -3.26071004319558
Si       -3.15339727481338      -5.46158497314626     -10.41068813858206
Si       -3.15316833287435      -5.46253398036402      -5.20497216901119
C        -3.15107808939826      -7.28277298288482      -5.85402641894636
C        -3.16638295782056      -3.65847646500040      -0.64762791236504
Si       -3.15359788726219      -7.28131817690978      -7.80899174427591
Si       -3.15557233013153      -3.64574252849687      -2.60308210889310
C        -1.57660631853236      -2.73182260806115      -8.46492015491759
C        -1.57962632686836      -2.74095819774621      -3.26864417206741
Si       -1.57664622816377      -2.73187741540849     -10.40932862196250
Si       -1.57827399928263      -2.73598336910943      -5.20953027943044
C        -1.57552328406560      -4.55573040490596      -5.85839263889789
C        -1.64972546305067      -0.95246944018129      -0.67394002782156
Si       -1.57621318754219      -4.55301416898152      -7.81163034686726
Si       -1.59860216187561      -0.92295338848601      -2.62244920114382
C        -0.00000000000000      -0.00000000000000      -8.46095535010828
C        -0.00000000000000      -0.00000000000000      -3.24305183585837
Si       -0.00000000000000      -0.00000000000000     -10.40605285222268
Si       -0.00000000000000      -0.00000000000000      -5.20068822358273
C         0.00000000000000      -1.82305364169375      -5.85277602232118
C        -0.00000000000000       1.90493888036257      -0.67394002782156
Si        0.00000000000000      -1.82099636291129      -7.80807852968096
Si       -0.00000000000000       1.84590677697201      -2.62244920114382
C         1.57752461794742       2.73129242764667      -8.46492015491759
C         1.58392626652523       2.73847562642781      -3.26864417206741
Si        1.57755212768682       2.73135439407499     -10.40932862196250
Si        1.58029410233917       2.73481706206594      -5.20953027943044
C         1.57881076616851       0.91152682084688      -5.85277602232118
C         1.58514207892753       4.57140631208292      -0.64762791236504
Si        1.57702911048023       0.91049818145565      -7.80807852968096
Si        1.57951948026982       4.55567706562161      -2.60308210889310
C         3.15355780896948       5.46138400116967      -8.46671080841815
C         3.15439612697483       5.46276837239540      -3.26071004319558
Si        3.15317269426529       5.46171463478617     -10.41068813858206
Si        3.15410902959377       5.46199086885985      -5.20497216901119
C         3.15761662140890       3.64230839070769      -5.85839263889789
C         3.15108522603116       7.28276886254789      -0.64576132870742
Si        3.15491934035738       3.64154774668236      -7.81163034686726
Si        3.15452200351388       7.28078463814310      -2.60117737539536
C        -1.57745196991462      -8.19130644657252      -8.46527965019802
C        -1.57442435945240      -8.19305443828788      -3.25769028802608
Si       -1.57796482442607      -8.19101034988227     -10.40974915589835
Si       -1.57482478881427      -8.19282325028801      -5.20283706863307
C        -1.57607758890216     -10.01199758625285      -5.85572820560130
C        -1.57721974882619      -6.37373078085991      -0.64869773362142
Si       -1.57586359684638     -10.01187403788184      -7.81043880784857
Si       -1.57719717317611      -6.37268211897185      -2.60325495886217
C         0.00000000000001      -5.46246567290579      -8.46844180268768
C         0.00000000000001      -5.46318067136689      -3.25912520576659
Si        0.00000000000001      -5.46149959478181     -10.41205637359999
Si        0.00000000000000      -5.46347008468168      -5.20417373171345
C         0.00000000000001      -7.28215112560361      -5.85572820560130
C         0.00000000000001      -3.64761063089123      -0.64952380127449
Si        0.00000000000001      -7.28239822234561      -7.81043880784857
Si        0.00000000000000      -3.64185950726683      -2.60531809309055
C         1.57660631853236      -2.73182260806114      -8.46492015491759
C         1.57962632686837      -2.74095819774621      -3.26864417206741
Si        1.57664622816377      -2.73187741540848     -10.40932862196250
Si        1.57827399928264      -2.73598336910942      -5.20953027943044
C         1.57552328406562      -4.55573040490595      -5.85839263889789
C         1.64972546305067      -0.95246944018128      -0.67394002782156
Si        1.57621318754221      -4.55301416898152      -7.81163034686726
Si        1.59860216187562      -0.92295338848601      -2.62244920114382
C         3.15413093647979       0.00053018041449      -8.46492015491759
C         3.16355259339361       0.00248257131840      -3.26864417206741
Si        3.15419835585060       0.00052302133350     -10.40932862196250
Si        3.15856810162181       0.00116630704349      -5.20953027943044
C         3.15371972423008      -1.82080093173286      -5.85859720788680
C         3.15892346946598       1.82380531544562      -0.64952380127449
Si        3.15420909910294      -1.82108347244744      -7.81183458127700
Si        3.15394285030694       1.82092975363343      -2.60531809309055
C         4.73063404003686       2.73123283645290      -8.46844180268768
C         4.73125324686783       2.73159033568346      -3.25912520576659
Si        4.72979739183945       2.73074979739091     -10.41205637359999
Si        4.73150388615064       2.73173504234085      -5.20417373171345
C         4.73313990547452       0.91342201419828      -5.85839263889789
C         4.73120289869439       4.55277776026398      -0.64869773362142
Si        4.73113252789958       0.91146642229918      -7.81163034686726
Si        4.73030601868439       4.55223387823346      -2.60325495886217
C         0.00000000000002     -10.92353340496427      -8.46527965019802
C         0.00000000000001     -10.92003742153356      -3.25769028802608
Si        0.00000000000002     -10.92412559834474     -10.40974915589835
Si        0.00000000000001     -10.92049979753327      -5.20283706863307
C         0.00000000000002     -12.74060033233968      -5.85402641894636
C         0.00000000000001      -9.10204876603645      -0.64325694308479
Si        0.00000000000002     -12.74350994428975      -7.80899174427591
Si        0.00000000000001      -9.10204876603645      -2.59851029409728
C         1.57745196991464      -8.19130644657252      -8.46527965019802
C         1.57442435945243      -8.19305443828787      -3.25769028802608
Si        1.57796482442609      -8.19101034988226     -10.40974915589835
Si        1.57482478881430      -8.19282325028801      -5.20283706863307
C         1.57607758890219     -10.01199758625284      -5.85572820560130
C         1.57721974882621      -6.37373078085990      -0.64869773362142
Si        1.57586359684642     -10.01187403788183      -7.81043880784857
Si        1.57719717317613      -6.37268211897184      -2.60325495886217
C         3.15291838035010      -5.46175317545521      -8.46671080841815
C         3.15369812199716      -5.46317136575715      -3.26071004319558
Si        3.15339727481341      -5.46158497314624     -10.41068813858206
Si        3.15316833287437      -5.46253398036402      -5.20497216901119
C         3.15107808939829      -7.28277298288480      -5.85402641894636
C         3.16638295782056      -3.65847646500037      -0.64762791236504
Si        3.15359788726222      -7.28131817690975      -7.80899174427591
Si        3.15557233013154      -3.64574252849686      -2.60308210889310
C         4.73107406671459      -2.73148688597372      -8.46511354728340
C         4.73045406344913      -2.73112892692151      -3.25938051482941
Si        4.73096919349238      -2.73142633739065     -10.40916831451174
Si        4.72968259280751      -2.73068351813889      -5.20488668504211
C         4.72905391298988      -4.55119912909599      -5.85651660861896
C         4.75152503674809      -0.91292984708252      -0.64762791236504
Si        4.72953614446828      -4.55199705339219      -7.81046773789273
Si        4.73509181040135      -0.90993453712473      -2.60308210889310
VEC1       7.88260545787235     -13.65307314905464       0.00000000000000
VEC2       7.88260545787235      13.65307314905464       0.00000000000000
VEC3       0.00000000000000       0.00000000000000      20.83042714471088
