216
C108NbSi107 optimized with Band in AMS.
Si        3.14911250590675       0.02442211780637       7.14316302120912
Si        3.14572919007459       0.01520004328814      12.31847601721164
C         3.15236213991799       0.01709134656666       5.20851633431405
C         3.14542401400230       0.01469711343080      10.38092989225343
Si        3.14648323527147      -1.81138369300242       9.72801686126754
Si        3.14654604795363       1.85846501664606      14.91343731069119
C         3.14602122914281      -1.80316008715655       7.77978848455355
C         3.14576253278654       1.84056433269596      12.96687802448832
Si       -3.14625575799178      -0.01786314085750     -13.60632431445173
Si       -3.14549304454502      -0.02459293603484      -8.42846075239858
C        -3.14674433864774      -0.02710918309480     -15.54356624077887
C        -3.14569334868834      -0.02514533555907     -10.36568631671645
Si       -3.14564631191221      -1.85100980155521     -11.01850454411352
Si       -3.14549923429438       1.81923193672724      -5.83316570543276
C        -3.14588954950177      -1.84309293258097     -12.96542087891106
C        -3.14568440947702       1.80105547995565      -7.78057379372141
Si       -3.14856225806899       0.00245109668841      -3.25395974662844
Si       -3.16292290952375      -0.00579901075779       1.94322567383689
C        -3.14737635795575      -0.00742281132945      -5.19014088811399
C        -3.14498671588311      -0.00391568361696       0.00015252036385
Si       -3.14390668376094      -1.83076469645546      -0.65318781140242
Si       -3.14266837649335       1.83874684152664       4.55190185709026
C        -3.14423394637997      -1.82191694497960      -2.60416995753571
C        -3.14307311579602       1.82080336616944       2.59895408927368
Si       -3.14767178276548       0.02445673574574       7.14255655929474
Si       -3.14309985837133       0.01525891104990      12.31792856512828
C        -3.15146491010624       0.01712289549116       5.20790252852743
C        -3.14341013865086       0.01473518497063      10.38042867886273
Si       -3.14443821038303      -1.81135852209820       9.72743753961953
Si       -3.14341940655529       1.85841076430401      14.91284913712074
C        -3.14451450507628      -1.80311103764860       7.77918216220715
C        -3.14318669743122       1.84060468628147      12.96626571808006
Si       -1.57355744709341       2.72821290486950     -13.60042136833989
Si       -1.57312688134282       2.72153867784230      -8.42299431717367
C        -1.57380408393571       2.71912109443196     -15.53719643116017
C        -1.57338164630747       2.72077787865441     -10.36024671405507
Si       -1.57339338047264       0.89489896422464     -11.01289293351976
Si       -1.57212856880771       4.56602666886662      -5.83050004222837
C        -1.57365394044317       0.90280993102262     -12.96003487739932
C        -1.57262312028421       4.54750736776026      -7.77702351998531
Si       -1.57441928095110       2.75267767369103      -3.24868442118841
Si       -1.58637323972649       2.76641549646248       1.94711860253717
C        -1.57293177330772       2.74247134736159      -5.18484563974094
C        -1.57444230711572       2.74249057965557       0.00453281837182
Si       -1.58332496559767       0.92230809593254      -0.67521610934682
Si       -1.57528645039637       4.58555029827045       4.55375756402214
C        -1.58255703576438       0.92966147196883      -2.61994347768001
C        -1.57588063707185       4.57019429938474       2.60181396927280
Si       -1.57601440959611       2.77193386507121       7.14998650508491
Si       -1.57090789716676       2.76099044361924      12.32355671442094
C        -1.58000841365153       2.76704116898774       5.21662526580644
C        -1.57108295400123       2.76067924274776      10.38621406873136
Si       -1.57074427229906       0.93471608589864       9.73251413037883
Si       -1.57106515026854       4.60427897825258      14.91801796900502
C        -1.57167637500186       0.94360907389160       7.78322789572583
C        -1.57124074474313       4.58669729990062      12.97101029845459
Si       -0.00113842103501       5.47408348917374     -13.59494677179426
Si       -0.00088115467821       5.46764977496498      -8.41969500496381
C        -0.00130398932638       5.46461498132564     -15.53183823714114
C        -0.00104139825092       5.46693962463967     -10.35611447183969
Si       -0.00097282422552       3.64086983241971     -11.00755455585541
Si       -0.00074117979169       7.31005957013245      -5.82512059863963
C        -0.00110987479010       3.64878337113733     -12.95438623837616
C        -0.00088208031808       7.29238824957256      -7.77156313212746
Si       -0.00047081196491       5.49520947308876      -3.23520375211385
Si        0.00002153981522       5.48955239810612       1.95808352284622
C        -0.00073491985100       5.48618144665514      -5.17498558483174
C        -0.00028926193271       5.48787178145005       0.01602410160647
Si       -0.00025637226719       3.66160701737506      -0.64246223058764
Si        0.00034573445301       7.33374285651634       4.55739778317008
C        -0.00044430152727       3.66897295495338      -2.59348780105043
C         0.00007963742904       7.31650008836620       2.60622095491083
Si        0.00066412561741       5.51502308601130       7.14480855775739
Si        0.00123107231369       5.50727060889294      12.32868763845583
C         0.00035177605264       5.50657842939649       5.20239156967613
C         0.00095370755291       5.50705705320635      10.39181629313249
Si        0.00098359171268       3.68204955927052       9.73868673955591
Si        0.00181180922286       7.34902908178598      14.92292521560421
C         0.00072061352696       3.69057840697090       7.79065034321914
C         0.00123783918372       7.33286455754155      12.97596171803494
Si       -1.57348441539553      -2.76380685067491     -13.61096953020372
Si       -1.57314735509728      -2.77047722532757      -8.43367060143249
C        -1.57368967829844      -2.77265545082811     -15.54764820421321
C        -1.57322885630039      -2.77117043469747     -10.37093161148496
Si       -1.57328865855066      -4.59715503852200     -11.02324950946116
Si       -1.57294461992060      -0.92687210842613      -5.83832404458794
C        -1.57345191780145      -4.58913199597794     -12.97028980941633
C        -1.57311219758425      -0.94503001268900      -7.78586654738856
Si       -1.57450337707664      -2.74551010395757      -3.25853143156855
Si       -1.57876116489224      -2.76888931143635       1.93764946367280
C        -1.57493921457094      -2.75305547268328      -5.19489571052505
C        -1.57131384784325      -2.75197571903725      -0.00535883971623
Si       -1.57164490124669      -4.57618627834576      -0.66236028347001
Si       -1.59512005891077      -0.92255984229645       4.56576575468949
C        -1.57243390577758      -4.56829342688409      -2.61167017557039
C        -1.67395331255521      -0.99585176143113       2.64651368274993
Si       -1.57120428487261      -2.72790687028308       7.13911333743846
Si       -1.57093888008179      -2.73044757282926      12.31285670947357
C        -1.57164249838946      -2.74168195519562       5.20600744940426
C        -1.57119993205148      -2.73070642950243      10.37541447712470
Si       -1.56990751303774      -4.55777424441000       9.72658091281082
Si       -1.57076263494886      -0.88751042060211      14.90738242410940
C        -1.56883366111572      -4.54994887013292       7.78204872848602
C        -1.57088725683295      -0.90524350862147      12.96064492227137
Si       -0.00104800664638      -0.01786772782742     -13.60556131498977
Si       -0.00078664910135      -0.02448227436294      -8.42798927087161
C        -0.00105006862940      -0.02675600380189     -15.54233770284256
C        -0.00090107096656      -0.02516345159348     -10.36543357676345
Si       -0.00092371404432      -1.85105678453354     -11.01794229581149
Si       -0.00067935915514       1.81930521896111      -5.83287215337286
C        -0.00109127228957      -1.84312606706876     -12.96486870754573
C        -0.00085689738091       1.80096598946542      -7.78038956204170
Si       -0.00047301786795       0.00320284255053      -3.24731438590938
Nb        0.00015657545033       0.01668627841813       1.97755870711988
C        -0.00059771651365      -0.00599353253487      -5.18644991799917
C        -0.00030956602691      -0.00245643040385      -0.11087818589931
Si       -0.00018931925178      -1.84077878861357      -0.67728033230167
Si        0.00038400209715       1.87248113356944       4.57470053093922
C        -0.00044713409259      -1.83217544502820      -2.62320067829436
C         0.00002613558151       1.96565460791156       2.65448154297936
Si        0.00073887011847       0.02345054125667       7.13281897448429
Si        0.00129112181200       0.01532036976085      12.31820342108989
C         0.00051276062995       0.01574779128775       5.17755654744557
C         0.00109632698707       0.01505773502781      10.38074494180096
Si        0.00102843248578      -1.80985451898524       9.72762849974565
Si        0.00156743985268       1.85844371771382      14.91313507878764
C         0.00074268143892      -1.80170085507416       7.77865531450833
C         0.00124887485494       1.84055894773582      12.96639426563092
Si        1.57132960676156       2.72817139710279     -13.60006111171817
Si        1.57144118541280       2.72148286929789      -8.42275487280269
C         1.57126012100934       2.71902551533110     -15.53676023252242
C         1.57142111434459       2.72070233532899     -10.36004209467814
Si        1.57150916550658       0.89487832692260     -11.01261961842823
Si        1.57071731253991       4.56599414886441      -5.83016897255247
C         1.57150952489937       0.90279258925943     -12.95968164176703
C         1.57088660967659       4.54747824346918      -7.77677612780294
Si        1.57348774503599       2.75263517344918      -3.24830888791626
Si        1.58650035452572       2.76638519390533       1.94738097678289
C         1.57160019130225       2.74239073073144      -5.18442085542165
C         1.57400360450421       2.74241097125614       0.00468154709030
Si        1.58276825454011       0.92223999771068      -0.67484836918832
Si        1.57597145433151       4.58554459894191       4.55402431056857
C         1.58160875760025       0.92961450684685      -2.61957406698179
C         1.57598846917480       4.57019950234632       2.60204003789453
Si        1.57740498562150       2.77190206424187       7.15030981016678
Si        1.57340199562194       2.76097200867098      12.32375993743128
C         1.58084805756598       2.76699580084126       5.21695137460455
C         1.57310777729126       2.76063188507669      10.38633127361045
Si        1.57278394550813       0.93470821269508       9.73276334564175
Si        1.57415158982047       4.60421385206039      14.91836615460002
C         1.57314511516155       0.94361033899819       7.78356073573336
C         1.57372773095305       4.58667889833598      12.97130311213089
Si       -0.00104142373432      -5.50990467890056     -13.61618944519688
Si       -0.00073541013409      -5.51672518433168      -8.43855853715739
C        -0.00118434557917      -5.51850080966440     -15.55303888342888
C        -0.00088952424001      -5.51735016947892     -10.37579754617921
Si       -0.00085613579772      -7.34322690653354     -11.02838089178006
Si       -0.00059820085014      -3.67313354182244      -5.84329401628243
C        -0.00093773629898      -7.33514081463464     -12.97528892645058
C        -0.00076813726577      -3.69133553330419      -7.79081907174566
Si       -0.00041294488555      -5.48928991486358      -3.25825243965481
Si        0.00012369229522      -5.49828227203091       1.93433667955197
C        -0.00058856704982      -5.49846587028519      -5.19636127933038
C        -0.00015919946536      -5.49753661622391      -0.00803034527607
Si       -0.00017683411353      -7.32266574470875      -0.66664460738182
Si        0.00045039121821      -3.65306936862459       4.54138815645163
C        -0.00039394400048      -7.31487795912922      -2.61623289301766
C         0.00013035596389      -3.67561089878326       2.58920810611162
Si        0.00073396178160      -5.46980615909426       7.12850449269148
Si        0.00136135357186      -5.47700809373062      12.31004469659438
C         0.00044698804369      -5.47923842278963       5.18769932981247
C         0.00103804614653      -5.47756067345948      10.37489808305296
Si        0.00106161129248      -7.30192289152490       9.72060612547564
Si        0.00161922669038      -3.63314820382778      14.90267887835297
C         0.00081438790548      -7.29265792788652       7.77524995814034
C         0.00134381925769      -3.65108460096865      12.95600252761758
Si        1.57136333241912      -2.76381168960495     -13.61069812680488
Si        1.57161226276984      -2.77049828019159      -8.43334154777884
C         1.57132808659090      -2.77260483101841     -15.54751139625124
C         1.57142267244182      -2.77117235871831     -10.37061156654766
Si        1.57147533674677      -4.59716538040870     -11.02295590524955
Si        1.57166795295619      -0.92692435934046      -5.83806717913319
C         1.57134103741280      -4.58916488027368     -12.96999115989678
C         1.57148812337757      -0.94509076771024      -7.78552892411440
Si        1.57363581052067      -2.74551617894769      -3.25831063015326
Si        1.57901450152218      -2.76889626312557       1.93805205455805
C         1.57375138574342      -2.75306608660249      -5.19474281423480
C         1.57101418297628      -2.75193306984757      -0.00495878686492
Si        1.57132539272682      -4.57618122972181      -0.66201113983598
Si        1.59606183503201      -0.92267922680010       4.56618173686209
C         1.57161959513355      -4.56830937266636      -2.61135727308850
C         1.67418426946540      -0.99595664972185       2.64708687905742
Si        1.57267161518767      -2.72794554338288       7.13940234620725
Si        1.57357580283916      -2.73048085402096      12.31318801458512
C         1.57257655946359      -2.74174712085917       5.20631742710839
C         1.57331938260939      -2.73069121353395      10.37578577672520
Si        1.57198458254115      -4.55780307705658       9.72692169319619
Si        1.57421072136194      -0.88750499424096      14.90762205024360
C         1.57034901442905      -4.54999983742717       7.78234581887291
C         1.57354349084695      -0.90526612740028      12.96097297515101
Si        3.14420472191564      -0.01792094352900     -13.60564047114694
Si        3.14386820290994      -0.02468352856370      -8.42789354465936
C         3.14468744516603      -0.02712565715072     -15.54301260413703
C         3.14377263137571      -0.02523619173180     -10.36519036957172
Si        3.14379071063301      -1.85107667725392     -11.01793749630145
Si        3.14416729371456       1.81914500740226      -5.83256768658335
C         3.14378353817688      -1.84316532686465     -12.96474592970897
C         3.14403197673480       1.80099501752466      -7.77999378197368
Si        3.14764013835496       0.00240713387145      -3.25336681054889
Si        3.16310682277984      -0.00588797957540       1.94389343159142
C         3.14603761075219      -0.00750954980800      -5.18956228563687
C         3.14447007929337      -0.00399217278504       0.00068817094345
Si        3.14349977650613      -1.83081216606803      -0.65258085573443
Si        3.14343742015046       1.83868274141926       4.55248706520781
C         3.14341764509925      -1.82196324744425      -2.60353480938526
C         3.14325806279282       1.82077447696822       2.59961756044513
VEC1       4.71725629893772      -8.23826496258924      -0.01544479284429
VEC2       4.71710403548131       8.23817705324169       0.01631352532279
VEC3       0.00284030391510       0.05994812745964      31.10102858322938
