400
C200MoSi199 optimized with Band in AMS.
C         6.30874400484490       0.00155263054603       1.95111854548765
C         6.30645915294161      -0.00100574026040       7.15830465879875
Si        6.31584136044810       0.00166084178525       0.00611901443793
Si        6.30743131358548      -0.00048513187883       5.21422079364927
C         6.30599507480263      -1.82001416619277       4.55978518151104
C         6.30607122560406       1.81996912952815       9.76674492144145
Si        6.30729449382930      -1.81967287678364       2.60549235252150
Si        6.30712285479689       1.81974881057527       7.81358431537066
C        -6.30874400484490       0.00155263054600       1.95111854548765
C        -6.30645915294161      -0.00100574026043       7.15830465879875
Si       -6.31584136044811       0.00166084178522       0.00611901443793
Si       -6.30743131358547      -0.00048513187886       5.21422079364927
C        -6.30599507480263      -1.82001416619281       4.55978518151104
C        -6.30607122560407       1.81996912952811       9.76674492144145
Si       -6.30729449382930      -1.81967287678366       2.60549235252150
Si       -6.30712285479690       1.81974881057523       7.81358431537066
C        -4.73136287255145       2.73165362810138       1.95027989523208
C        -4.73087401178282       2.73137138420501       7.15950259233635
Si       -4.73383401235748       2.73308034133360       0.00424810493965
Si       -4.73138448418128       2.73166610558167       5.21562669973971
C        -4.73272831515654       0.91231699538951       4.56529726130095
C        -4.72917511307684       4.55123331468313       9.76674492144145
Si       -4.73401684339921       0.91165223724822       2.61053559583647
Si       -4.72951012586314       4.55225421175591       7.81358431537066
C        -3.15571661991800       5.46275625889546       1.95111854548765
C        -3.15235857985568       5.46205670450654       7.15830465879875
Si       -3.15935901140173       5.46884864352792       0.00611901443793
Si       -3.15329552026148       5.46263831612990       5.21422079364927
C        -3.15645385188989       3.64250445244073       4.56529726130095
C        -3.15115083659083       7.28294340638006       9.77042454054388
Si       -3.15652241857348       3.64395272970301       2.61053559583647
Si       -3.15358647891318       7.28153718762961       7.81573669656158
C        -1.57502636098387       8.19291929664811       1.95117969580175
C        -1.57756159661320       8.19145557767506       7.15803113848378
Si       -1.57499998955783       8.19293452219804       0.00561730450059
Si       -1.57795705850973       8.19122725764264       5.21325871331481
C        -1.57681903423082       6.37115901401503       4.55978518151104
C        -1.57646556728003      10.01243400978018       9.76807283067713
Si       -1.57776430904251       6.37211369919772       2.60549235252150
Si       -1.57592252060293      10.01212048163498       7.81349122794006
C        -0.00000000000002      10.92094497713247       1.95117969580175
C        -0.00000000000001      10.92387241507857       7.15803113848378
Si       -0.00000000000001      10.92091452603260       0.00561730450059
Si       -0.00000000000001      10.92432905514343       5.21325871331481
C        -0.00000000000001       9.10226119014290       4.56453417302334
C        -0.00000000000001      12.74089675766856       9.77042454054388
Si       -0.00000000000001       9.10226119014290       2.60940158424279
Si       -0.00000000000002      12.74370919516947       7.81573669656158
C        -4.73073757893973      -2.73129261466636       1.95050634771874
C        -4.73030999163214      -2.73104574701920       7.15694604826909
Si       -4.73412747926342      -2.73324977453076       0.00487183674293
Si       -4.72969330260018      -2.73068970144060       5.21215627776293
C        -4.72917604057181      -4.55114484782226       4.55978518151104
C        -4.73087074477573      -0.91226543073695       9.77015462503472
Si       -4.72953018478679      -4.55244082241409       2.60549235252150
Si       -4.73078153377167      -0.91130331054209       7.81628875172139
C        -3.15968573763629       0.00160748086721       1.95582958395240
C        -3.15540809587433      -0.00118347037608       7.16290698225468
Si       -3.18426844460154       0.00193013166457       0.01040697484013
Si       -3.15754487221361      -0.00067525028766       5.22005125710049
C        -3.15256111130589      -1.82013200624921       4.56220910047061
C        -3.15324955825302       1.82052948127944       9.76759429606698
Si       -3.15370578401990      -1.82079288334878       2.60733522158286
Si       -3.15384887264640       1.82087549560580       7.81480967050807
C        -1.58123498808526       2.73556437633479       1.95582958395240
C        -1.57667913252687       2.73325530552230       7.16290698225468
Si       -1.59380576535494       2.75669229966181       0.01040697484013
Si       -1.57818765220379       2.73485169807011       5.22005125710049
C        -1.58546934918739       0.91537115554524       4.58051211513174
C        -1.57539033437533       4.55318696236487       9.77015462503472
Si       -1.58779788764917       0.91671553785297       2.62639010138137
Si       -1.57617894940354       4.55262864327163       7.81628875172139
C        -0.00000000000001       5.46258522933269       1.95050634771874
C        -0.00000000000001       5.46209149403839       7.15694604826909
Si       -0.00000000000001       5.46649954906149       0.00487183674293
Si       -0.00000000000000       5.46137940288117       5.21215627776293
C        -0.00000000000000       3.64026401249841       4.56220910047061
C         0.00000000000000       7.28191555086831       9.76807283067713
Si       -0.00000000000000       3.64158576669755       2.60733522158286
Si       -0.00000000000001       7.28254260715872       7.81349122794006
C         1.57502636098385       8.19291929664811       1.95117969580175
C         1.57756159661318       8.19145557767508       7.15803113848378
Si        1.57499998955780       8.19293452219804       0.00561730450059
Si        1.57795705850971       8.19122725764265       5.21325871331481
C         1.57681903423081       6.37115901401504       4.55978518151104
C         1.57646556728000      10.01243400978020       9.76807283067713
Si        1.57776430904250       6.37211369919773       2.60549235252150
Si        1.57592252060290      10.01212048163500       7.81349122794006
C        -3.15302738492690      -5.46430888944149       1.95111854548765
C        -3.15410057308592      -5.46105096424613       7.15830465879875
Si       -3.15648234904636      -5.47050948531316       0.00611901443793
Si       -3.15413579332399      -5.46215318425107       5.21422079364927
C        -3.15136137853843      -7.28282184992995       4.56519329992999
C        -3.15548041040040      -3.64092153162794       9.77015462503472
Si       -3.15312971432047      -7.28180090079017       2.61020783171663
Si       -3.15460258436814      -3.64132533272955       7.81628875172139
C        -1.57845074955103      -2.73717185720202       1.95582958395240
C        -1.57872896334747      -2.73207183514623       7.16290698225468
Si       -1.59046267924660      -2.75862243132639       0.01040697484013
Si       -1.57935722000982      -2.73417644778246       5.22005125710049
C        -1.57627446326665      -4.55482144783027       4.56529726130095
C        -1.57779725284042      -0.91094166865408       9.77266560961409
Si       -1.57749442482571      -4.55560496695125       2.61053559583647
Si       -1.57715359741813      -0.91057005402275       7.81841686812299
C         0.00000000000000      -0.00000000000000       2.02456473101177
C         0.00000000000000      -0.00000000000000       7.16437943781495
Mo        0.00000000000000      -0.00000000000000      -0.03114605727388
Si       -0.00000000000000       0.00000000000001       5.21841906925268
C         0.00000000000000      -1.83074231109049       4.58051211513174
C        -0.00000000000000       1.82188333730815       9.77266560961409
Si        0.00000000000000      -1.83343107570594       2.62639010138137
Si       -0.00000000000000       1.82114010804550       7.81841686812299
C         1.58123498808525       2.73556437633480       1.95582958395240
C         1.57667913252686       2.73325530552230       7.16290698225468
Si        1.59380576535493       2.75669229966182       0.01040697484013
Si        1.57818765220379       2.73485169807012       5.22005125710049
C         1.58546934918739       0.91537115554525       4.58051211513174
C         1.57539033437532       4.55318696236488       9.77015462503472
Si        1.58779788764917       0.91671553785298       2.62639010138137
Si        1.57617894940353       4.55262864327164       7.81628875172139
C         3.15571661991798       5.46275625889548       1.95111854548765
C         3.15235857985566       5.46205670450656       7.15830465879875
Si        3.15935901140172       5.46884864352792       0.00611901443793
Si        3.15329552026147       5.46263831612991       5.21422079364927
C         3.15645385188988       3.64250445244075       4.56529726130095
C         3.15115083659081       7.28294340638008       9.77042454054388
Si        3.15652241857347       3.64395272970303       2.61053559583647
Si        3.15358647891317       7.28153718762963       7.81573669656158
C        -1.57728295771868      -8.19161644991582       1.95161485762117
C        -1.57491129069171      -8.19298573251227       7.15960211302509
Si       -1.57677266048038      -8.19191107016372       0.00598730481711
Si       -1.57498490337180      -8.19294323221160       5.21509016773976
C        -1.57630132266024     -10.01233918310476       4.56231068282376
C        -1.57689611252723      -6.37120244421127       9.76674492144145
Si       -1.57539577797116     -10.01181636663476       2.60732243894851
Si       -1.57761272893376      -6.37200302233118       7.81358431537066
C         0.00000000000001      -5.46330725620276       1.95027989523208
C         0.00000000000001      -5.46274276841005       7.15950259233635
Si        0.00000000000001      -5.46616068266721       0.00424810493965
Si        0.00000000000001      -5.46333221116337       5.21562669973971
C         0.00000000000000      -7.28210520421918       4.56231068282376
C         0.00000000000000      -3.64105896255889       9.76759429606698
Si        0.00000000000001      -7.28315083715916       2.60732243894851
Si        0.00000000000000      -3.64175099121160       7.81480967050807
C         1.57845074955104      -2.73717185720201       1.95582958395240
C         1.57872896334748      -2.73207183514622       7.16290698225468
Si        1.59046267924661      -2.75862243132638       0.01040697484013
Si        1.57935722000983      -2.73417644778245       5.22005125710049
C         1.57627446326666      -4.55482144783025       4.56529726130095
C         1.57779725284043      -0.91094166865407       9.77266560961409
Si        1.57749442482572      -4.55560496695124       2.61053559583647
Si        1.57715359741813      -0.91057005402275       7.81841686812299
C         3.15968573763629       0.00160748086723       1.95582958395240
C         3.15540809587433      -0.00118347037607       7.16290698225468
Si        3.18426844460154       0.00193013166458       0.01040697484013
Si        3.15754487221361      -0.00067525028765       5.22005125710049
C         3.15256111130590      -1.82013200624920       4.56220910047061
C         3.15324955825300       1.82052948127945       9.76759429606698
Si        3.15370578401990      -1.82079288334877       2.60733522158286
Si        3.15384887264640       1.82087549560581       7.81480967050807
C         4.73136287255144       2.73165362810139       1.95027989523208
C         4.73087401178281       2.73137138420504       7.15950259233635
Si        4.73383401235748       2.73308034133362       0.00424810493965
Si        4.73138448418127       2.73166610558170       5.21562669973971
C         4.73272831515653       0.91231699538953       4.56529726130095
C         4.72917511307683       4.55123331468314       9.76674492144145
Si        4.73401684339919       0.91165223724824       2.61053559583647
Si        4.72951012586312       4.55225421175595       7.81358431537066
C         0.00000000000001     -10.92355067059709       1.95161485762117
C         0.00000000000002     -10.92081210540419       7.15960211302509
Si        0.00000000000002     -10.92296143010128       0.00598730481711
Si        0.00000000000002     -10.92089710600553       5.21509016773976
C         0.00000000000002     -12.74113987056882       4.56519329992999
C         0.00000000000001      -9.10226119014290       9.77184220859110
Si        0.00000000000002     -12.74318176884838       2.61020783171663
Si        0.00000000000001      -9.10226119014290       7.81782508941434
C         1.57728295771870      -8.19161644991580       1.95161485762117
C         1.57491129069172      -8.19298573251226       7.15960211302509
Si        1.57677266048040      -8.19191107016370       0.00598730481711
Si        1.57498490337182      -8.19294323221159       5.21509016773976
C         1.57630132266027     -10.01233918310477       4.56231068282376
C         1.57689611252724      -6.37120244421126       9.76674492144145
Si        1.57539577797119     -10.01181636663477       2.60732243894851
Si        1.57761272893377      -6.37200302233118       7.81358431537066
C         3.15302738492692      -5.46430888944149       1.95111854548765
C         3.15410057308594      -5.46105096424612       7.15830465879875
Si        3.15648234904638      -5.47050948531314       0.00611901443793
Si        3.15413579332401      -5.46215318425106       5.21422079364927
C         3.15136137853845      -7.28282184992993       4.56519329992999
C         3.15548041040041      -3.64092153162794       9.77015462503472
Si        3.15312971432049      -7.28180090079016       2.61020783171663
Si        3.15460258436815      -3.64132533272954       7.81628875172139
C         4.73073757893974      -2.73129261466633       1.95050634771874
C         4.73030999163215      -2.73104574701919       7.15694604826909
Si        4.73412747926342      -2.73324977453073       0.00487183674293
Si        4.72969330260018      -2.73068970144058       5.21215627776293
C         4.72917604057182      -4.55114484782224       4.55978518151104
C         4.73087074477573      -0.91226543073693       9.77015462503472
Si        4.72953018478680      -4.55244082241407       2.60549235252150
Si        4.73078153377167      -0.91130331054207       7.81628875172139
C         6.30659895697863       0.00036734064181      -8.46632873819557
C         6.30828156663229       0.00040565976847      -3.26053342111851
Si        6.30671217381450      -0.00012381723934     -10.41019553565969
Si        6.30743373727347       0.00049700093388      -5.20457250025473
C         6.30608646451659      -1.81994226256741      -5.85615903909284
C         6.30852552754935       1.82099699147430      -0.64860067088054
Si        6.30704960738049      -1.81995189761832      -7.81002041004964
Si        6.30765726608198       1.82044470514714      -2.60308566423261
C        -6.30659895697862       0.00036734064178      -8.46632873819557
C        -6.30828156663229       0.00040565976843      -3.26053342111851
Si       -6.30671217381450      -0.00012381723938     -10.41019553565969
Si       -6.30743373727348       0.00049700093386      -5.20457250025473
C        -6.30608646451658      -1.81994226256744      -5.85615903909284
C        -6.30852552754936       1.82099699147427      -0.64860067088054
Si       -6.30704960738050      -1.81995189761834      -7.81002041004964
Si       -6.30765726608199       1.82044470514710      -2.60308566423261
C        -4.73072942291549       2.73128790578354      -8.46809597078768
C        -4.73130738587536       2.73162159285400      -3.25890823022382
Si       -4.72990305627250       2.73081080277976     -10.41159240596694
Si       -4.73158825906928       2.73178375506812      -5.20384041973750
C        -4.73319099767390       0.91342722303427      -5.85804650503309
C        -4.73129241860645       4.55284487154324      -0.64860067088054
Si       -4.73122521514951       0.91150348623676      -7.81122396378534
Si       -4.73037999388327       4.55236907821894      -2.60308566423261
C        -3.15361760481695       5.46149123790304      -8.46632873819557
C        -3.15449209498093       5.46292926104444      -3.26053342111851
Si       -3.15324885803255       5.46183486549962     -10.41019553565969
Si       -3.15414728407118       5.46214934869891      -5.20457250025473
C        -3.15764667849291       3.64235003343227      -5.85804650503309
C        -3.15113089231187       7.28295492121489      -0.64568361523570
Si       -3.15499778229388       3.64160948422657      -7.81122396378534
Si       -3.15458039607738       7.28096334928730      -2.60088624128254
C        -1.57482674400099       8.19303454556691      -8.46349481987771
C        -1.57788207218602       8.19127055101683      -3.25728897951198
Si       -1.57493691498211       8.19297093832130     -10.40848859587167
Si       -1.57820004644504       8.19108696849278      -5.20201975860954
C        -1.57692699945399       6.37120220801629      -5.85615903909284
C        -1.57485894251958      10.01150642454226      -0.64705272623049
Si       -1.57740022668708       6.37204113172936      -7.81002041004964
Si       -1.57563920492845      10.01195690925407      -2.60157716068817
C        -0.00000000000002      10.92071447929487      -8.46349481987771
C        -0.00000000000002      10.92424246839505      -3.25728897951198
Si       -0.00000000000001      10.92084169378610     -10.40848859587167
Si       -0.00000000000001      10.92460963344314      -5.20201975860954
C        -0.00000000000001       9.10226119014290      -5.85022881920699
C        -0.00000000000002      12.74087372799892      -0.64568361523570
Si       -0.00000000000001       9.10226119014290      -7.80504046788149
Si       -0.00000000000002      12.74485687185410      -2.60088624128254
C        -4.73119015895309      -2.73155391185889      -8.46474477301466
C        -4.73039891004264      -2.73109708408745      -3.25888028001754
Si       -4.73108230350728      -2.73149164148822     -10.40865673314824
Si       -4.72977038461120      -2.73073420476042      -5.20429759240338
C        -4.72915946506260      -4.55125994544888      -5.85615903909284
C        -4.75323502675258      -0.91212052409478      -0.64688234897227
Si       -4.72964938069342      -4.55208923411102      -7.81002041004964
Si       -4.73532958974460      -0.90977836625992      -2.60219930524016
C        -3.15408110021300       0.00055406694040      -8.46438316538195
C        -3.16365872426633       0.00254007222009      -3.26886998228379
Si       -3.15419613165258       0.00054193696438     -10.40879335031836
Si       -3.15869849756278       0.00107595772458      -5.20927246138420
C        -3.15378765690609      -1.82084015268167      -5.85830533151467
C        -3.15793939535488       1.82323715999266      -0.64981202840902
Si       -3.15432857566972      -1.82115245227545      -7.81140778091659
Si       -3.15386153848622       1.82088280823182      -2.60549607212045
C        -1.57752038615230       2.73123732491063      -8.46438316538195
C        -1.58402912920321       2.73853878800886      -3.26886998228379
Si       -1.57756739700470       2.73134301004755     -10.40879335031836
Si       -1.58028105550428       2.73497516292281      -5.20927246138420
C        -1.57850742027282       0.91135168401233      -5.85173416940616
C        -1.58669796819705       4.57248254537313      -0.64688234897227
Si       -1.57682235231518       0.91037880957339      -7.80734296243129
Si       -1.57977361787773       4.55580490314093      -2.60219930524016
C        -0.00000000000000       5.46310782371776      -8.46474477301466
C        -0.00000000000000       5.46219416817488      -3.25888028001754
Si       -0.00000000000001       5.46298328297642     -10.40865673314824
Si       -0.00000000000001       5.46146840952081      -5.20429759240338
C        -0.00000000000000       3.64168030536331      -5.85830533151467
C        -0.00000000000001       7.28377072134417      -0.64705272623049
Si       -0.00000000000000       3.64230490455090      -7.81140778091659
Si       -0.00000000000001       7.28286975192058      -2.60157716068817
C         1.57482674400097       8.19303454556692      -8.46349481987771
C         1.57788207218600       8.19127055101682      -3.25728897951198
Si        1.57493691498209       8.19297093832131     -10.40848859587167
Si        1.57820004644503       8.19108696849280      -5.20201975860954
C         1.57692699945397       6.37120220801630      -5.85615903909284
C         1.57485894251955      10.01150642454227      -0.64705272623049
Si        1.57740022668706       6.37204113172936      -7.81002041004964
Si        1.57563920492842      10.01195690925407      -2.60157716068817
C        -3.15298135216168      -5.46185857854484      -8.46632873819557
C        -3.15378947165137      -5.46333492081292      -3.26053342111851
Si       -3.15346331578195      -5.46171104826029     -10.41019553565969
Si       -3.15328645320229      -5.46264634963281      -5.20457250025473
C        -3.15116827406387      -7.28293333885032      -5.85373463929016
C        -3.16653705855553      -3.66036202127837      -0.64688234897227
Si       -3.15367334618053      -7.28148703478942      -7.80858649174083
Si       -3.15555597186687      -3.64602653688103      -2.60219930524016
C        -1.57656071406070      -2.73179139185105      -8.46438316538195
C        -1.57962959506311      -2.74107886022897      -3.26886998228379
Si       -1.57662873464788      -2.73188494701193     -10.40879335031836
Si       -1.57841744205849      -2.73605112064741      -5.20927246138420
C        -1.57554431918098      -4.55577725646657      -5.85804650503309
C        -1.67198391844077      -0.96532036539251      -0.68178164815972
Si       -1.57622743285562      -4.55311297046336      -7.81122396378534
Si       -1.60097411076694      -0.92432283381692      -2.62055672952484
C        -0.00000000000000       0.00000000000000      -8.46054297355386
C        -0.00000000000000       0.00000000000000      -3.23804699389097
Si       -0.00000000000000       0.00000000000000     -10.40560894162741
Si       -0.00000000000000      -0.00000000000000      -5.19832205620197
C         0.00000000000000      -1.82270336802467      -5.85173416940616
C        -0.00000000000000       1.93064073078502      -0.68178164815972
Si        0.00000000000000      -1.82075761914678      -7.80734296243129
Si       -0.00000000000000       1.84864566763384      -2.62055672952484
C         1.57752038615229       2.73123732491064      -8.46438316538195
C         1.58402912920321       2.73853878800887      -3.26886998228379
Si        1.57756739700469       2.73134301004756     -10.40879335031836
Si        1.58028105550428       2.73497516292282      -5.20927246138420
C         1.57850742027282       0.91135168401234      -5.85173416940616
C         1.58669796819703       4.57248254537313      -0.64688234897227
Si        1.57682235231518       0.91037880957340      -7.80734296243129
Si        1.57977361787771       4.55580490314092      -2.60219930524016
C         3.15361760481694       5.46149123790306      -8.46632873819557
C         3.15449209498092       5.46292926104447      -3.26053342111851
Si        3.15324885803253       5.46183486549964     -10.41019553565969
Si        3.15414728407116       5.46214934869892      -5.20457250025473
C         3.15764667849290       3.64235003343228      -5.85804650503309
C         3.15113089231186       7.28295492121490      -0.64568361523570
Si        3.15499778229387       3.64160948422660      -7.81122396378534
Si        3.15458039607737       7.28096334928732      -2.60088624128254
C        -1.57749668221766      -8.19149305601880      -8.46493340869570
C        -1.57444713975801      -8.19325371017877      -3.25750962636063
Si       -1.57800263195397      -8.19120094580233     -10.40928765830886
Si       -1.57488613992242      -8.19300025331569      -5.20253362469809
C        -1.57614017019363     -10.01224614168478      -5.85542626446546
C        -1.57723310894292      -6.37384186301753      -0.64860067088054
Si       -1.57590736185090     -10.01211172972542      -7.81006427519340
Si       -1.57727727219871      -6.37281378336607      -2.60308566423261
C         0.00000000000001      -5.46257581156710      -8.46809597078768
C         0.00000000000000      -5.46324318570802      -3.25890823022382
Si        0.00000000000001      -5.46162160555955     -10.41159240596694
Si        0.00000000000001      -5.46356751013626      -5.20384041973750
C         0.00000000000000      -7.28229128705913      -5.85542626446546
C         0.00000000000000      -3.64647431998534      -0.64981202840902
Si        0.00000000000001      -7.28256011097781      -7.81006427519340
Si       -0.00000000000000      -3.64176561646365      -2.60549607212045
C         1.57656071406071      -2.73179139185104      -8.46438316538195
C         1.57962959506311      -2.74107886022896      -3.26886998228379
Si        1.57662873464788      -2.73188494701193     -10.40879335031836
Si        1.57841744205850      -2.73605112064740      -5.20927246138420
C         1.57554431918099      -4.55577725646656      -5.85804650503309
C         1.67198391844077      -0.96532036539250      -0.68178164815972
Si        1.57622743285563      -4.55311297046336      -7.81122396378534
Si        1.60097411076694      -0.92432283381692      -2.62055672952484
C         3.15408110021300       0.00055406694042      -8.46438316538195
C         3.16365872426632       0.00254007222010      -3.26886998228379
Si        3.15419613165258       0.00054193696439     -10.40879335031836
Si        3.15869849756278       0.00107595772460      -5.20927246138420
C         3.15378765690610      -1.82084015268166      -5.85830533151467
C         3.15793939535488       1.82323715999268      -0.64981202840902
Si        3.15432857566973      -1.82115245227544      -7.81140778091659
Si        3.15386153848621       1.82088280823183      -2.60549607212045
C         4.73072942291548       2.73128790578356      -8.46809597078768
C         4.73130738587535       2.73162159285403      -3.25890823022382
Si        4.72990305627250       2.73081080277978     -10.41159240596694
Si        4.73158825906926       2.73178375506815      -5.20384041973750
C         4.73319099767390       0.91342722303430      -5.85804650503309
C         4.73129241860644       4.55284487154326      -0.64860067088054
Si        4.73122521514950       0.91150348623679      -7.81122396378534
Si        4.73037999388327       4.55236907821896      -2.60308566423261
C         0.00000000000001     -10.92379745839112      -8.46493340869570
C         0.00000000000001     -10.92027615007116      -3.25750962636063
Si        0.00000000000002     -10.92438167882404     -10.40928765830886
Si        0.00000000000001     -10.92078306379737      -5.20253362469809
C         0.00000000000002     -12.74091689272809      -5.85373463929016
C         0.00000000000001      -9.10226119014290      -0.64317869506430
Si        0.00000000000002     -12.74380950084988      -7.80858649174083
Si        0.00000000000001      -9.10226119014290      -2.59833791767206
C         1.57749668221768      -8.19149305601879      -8.46493340869570
C         1.57444713975803      -8.19325371017876      -3.25750962636063
Si        1.57800263195399      -8.19120094580234     -10.40928765830886
Si        1.57488613992244      -8.19300025331568      -5.20253362469809
C         1.57614017019365     -10.01224614168478      -5.85542626446546
C         1.57723310894293      -6.37384186301752      -0.64860067088054
Si        1.57590736185093     -10.01211172972544      -7.81006427519340
Si        1.57727727219872      -6.37281378336606      -2.60308566423261
C         3.15298135216168      -5.46185857854483      -8.46632873819557
C         3.15378947165138      -5.46333492081290      -3.26053342111851
Si        3.15346331578197      -5.46171104826027     -10.41019553565969
Si        3.15328645320230      -5.46264634963279      -5.20457250025473
C         3.15116827406389      -7.28293333885031      -5.85373463929016
C         3.16653705855554      -3.66036202127835      -0.64688234897227
Si        3.15367334618055      -7.28148703478941      -7.80858649174083
Si        3.15555597186688      -3.64602653688102      -2.60219930524016
C         4.73119015895310      -2.73155391185888      -8.46474477301466
C         4.73039891004264      -2.73109708408742      -3.25888028001754
Si        4.73108230350729      -2.73149164148820     -10.40865673314824
Si        4.72977038461121      -2.73073420476039      -5.20429759240338
C         4.72915946506262      -4.55125994544886      -5.85615903909284
C         4.75323502675258      -0.91212052409475      -0.64688234897227
Si        4.72964938069342      -4.55208923411101      -7.81002041004964
Si        4.73532958974459      -0.90977836625988      -2.60219930524016
VEC1       7.88278942254492     -13.65339178521434       0.00000000000000
VEC2       7.88278942254493      13.65339178521434      -0.00000000000000
VEC3       0.00000000000000      -0.00000000000000      20.82948883639606
